%chk=opt.chk
%mem=24GB
%nprocshared=28
#p opt UM062X/6-311+G** nosymm int=superfine 

Title Card Required

1 2
C -1  -1.68342904  0.00000000  0.00000000
C -1   1.68342904  0.00000000 -0.00000000
C 0  -0.00000923 -2.05545100 -0.00218400
C 0  -0.00001847 -3.45663400 -0.00371000
C 0  -1.16245391 -4.28964700  0.19341900
C 0  -1.35680607 -1.46623300  0.16419700
C 0   0.68191379 -5.68273300 -0.12500700
H 0   1.33095483 -6.55103000 -0.24207000
C 0  -1.70437045  0.76445700  1.22074200
C 0  -0.68198459 -5.68298300  0.11278600
H 0  -1.33101332 -6.55152100  0.22810600
C 0   1.16240261 -4.28923100 -0.20263200
C 0   1.35678555 -1.46588400 -0.16727800
C 0   1.83226296  2.19168900 -1.33769900
C 0  -1.79911419  0.40953900 -1.37420600
C 0  -1.88953708  2.76908500  2.62285300
H 0  -2.00434390  3.84514500  2.68868800
C 0  -2.40901823 -3.70308600  0.41334100
H 0  -3.33456816 -4.27951100  0.58257000
C 0  -1.79115689  1.75683100 -1.86867700
C 0   2.47403315 -2.28649400 -0.38846300
H 0   3.46900812 -1.81328700 -0.50709000
C 0   1.79914703  0.40665600  1.37505900
C 0   1.79119485  1.75290300  1.87236300
C 0   2.40900386 -3.70220600 -0.42113800
H 0   3.33456303 -4.27827200 -0.59153800
C 0  -1.83248664  2.18886500  1.34229400
C 0  -1.55573970  0.04225000  2.44254900
H 0  -1.41043963 -1.02702500  2.40771200
C 0   1.87179809 -0.62790300  2.36195200
H 0   1.90776654 -1.65906400  2.04521500
C 0  -1.79700045  2.02407800  3.78017400
H 0  -1.85430023  2.50708000  4.74815100
C 0  -2.47403930 -2.28730400  0.38372300
H 0  -3.46900299 -1.81434400  0.50342700
C 0  -1.81351737  1.98025300 -3.26008800
H 0  -1.78878663  3.00602900 -3.60919500
C 0   1.70433146  0.76701800 -1.21914100
C 0  -1.83448341  3.13594400  0.25924100
H 0  -1.86267207  4.17143300  0.58431100
C 0  -1.88378278  0.95518900 -4.17545700
H 0  -1.91764365  1.17003200 -5.23669600
C 0  -1.78350741  2.95542500 -1.07578900
H 0  -1.76626299  3.86784300 -1.66423700
C 0   1.81376158  1.97339900  3.26423800
H 0   1.78906470  2.99843800  3.61550800
C 0  -1.60748117  0.64359400  3.67979400
H 0  -1.49884934  0.03773200  4.57151700
C 0  -1.87169035 -0.62294000 -2.36327900
H 0  -1.90772139 -1.65476100 -2.04870200
C 0   1.88416859  0.94641300  4.17744200
H 0   1.91820492  1.15903100  5.23912300
C 0   1.88931544  2.77460400 -2.61703400
H 0   2.00397450  3.85081600 -2.68059700
C 0   1.93074781 -0.37237300  3.71002300
H 0   2.00873350 -1.19837700  4.40661800
C 0   1.79697172  2.03201600 -3.77592100
H 0   1.85429510  2.51705500 -4.74287700
C 0   1.83402577  3.13649300 -0.25265600
H 0   1.86191482  4.17267000 -0.57555100
C 0  -1.93047384 -0.36457400 -3.71081600
H 0  -2.00842977 -1.18910900 -4.40915300
C 0   1.78321497  2.95316000  1.08199600
H 0   1.76581972  3.86433700  1.67236000
C 0   1.55581461  0.04736400 -2.44246500
H 0   1.41060278 -1.02199400 -2.40988200
C 0   1.60758480  0.65130400 -3.67844300
H 0   1.49906995  0.04729700 -4.57143800

