%chk=opt.chk
%mem=16GB
%nprocshared=24
#p opt UM062X/6-311+G** nosymm int=superfine 

Title Card Required

0 1
C -1 -1.11059500  0.00000000  0.00000000
C -1  1.11059500  0.00000000  0.00000000
H 0 -1.56226500 -0.97871000  0.00000000
H 0 -1.56218100  0.97860500  0.00000000
H 0  1.56226500  0.97871000 -0.00000000
H 0  1.56218100 -0.97860500 -0.00000000

