%oldchk=force.chk
%chk=nbo.chk
#p UM062X/6-311+G** Pop=NBO Read

NBO Analysis

0 1
C -0.73054223 -0.00000000 -0.00000000
N  0.73054223  0.00000000 -0.00000000
H  1.09221604 -0.94599854 -0.00000000
H -1.08757944  1.03081716 -0.01933913
H  1.09221839  0.45735611  0.82809214
H -1.08757998 -0.48144368 -0.91168500
H -1.19433799 -0.50545285  0.85659330

$NBO
ARCHIVE FILE=ethane_nbo.47
$END


