%oldchk=force.chk
%chk=nbo.chk
#p UM062X/6-311+G** Pop=NBO Read

NBO Analysis

0 1
C -0.70720268 -0.00000000  0.00000000
O  0.70720268  0.00000000  0.00000000
H  1.01739059 -0.90717021 -0.00000000
H -1.11814122 -0.48457010  0.89176581
H -1.02311723  1.04220234 -0.00091804
H -1.11753225 -0.48604336 -0.89118274

$NBO
ARCHIVE FILE=ethane_nbo.47
$END


