%chk=opt.chk
%mem=24GB
%nprocshared=28
#p opt UM062X/6-311+G** nosymm int=superfine SCF=(Tight,MaxCycle=200)

Title Card Required

1 2
C -1  -0.91309929  0.00000000  0.00000000
C -1   0.91309929  0.00000000 -0.00000000
C 0   0.00000678 -2.15641600  0.00035500
C 0   0.00001280 -3.53176600  0.00057200
C 0  -0.85129412 -4.32427500  0.27970800
C 0  -0.91237421 -1.48110800  0.26120100
C 0   0.49555576 -5.72058700 -0.16372700
H 0   0.95560885 -6.59818100 -0.31972100
C 0  -1.10827671  0.83924400  1.16049800
C 0  -0.49573120 -5.72054000  0.16439000
H 0  -0.95585882 -6.59809200  0.32024000
C 0   0.85123689 -4.32435700 -0.27879900
C 0   0.91235464 -1.48115600 -0.26092300
C 0   1.25840038  2.25440400 -1.16868900
C 0  -1.10775416  0.30603300 -1.40736600
C 0  -1.42149572  2.91080500  2.39776700
H 0  -1.54172762  3.98261000  2.37971100
C 0  -1.73374419 -3.66420300  0.57630300
H 0  -2.42279755 -4.19797000  0.80625700
C 0  -1.16974456  1.60942100 -1.98926600
C 0   1.75517064 -2.23542700 -0.55533500
H 0   2.46630626 -1.73401000 -0.73946300
C 0   1.10789496  0.30612000  1.40730900
C 0   1.16978071  1.60950600  1.98921100
C 0   1.73362522 -3.66436000 -0.57587200
H 0   2.42260631 -4.19817900 -0.80608800
C 0  -1.25892442  2.25426600  1.16871200
C 0  -1.10223887  0.19487900  2.42776200
H 0  -0.96361638 -0.86727000  2.47572600
C 0   1.20888320 -0.78817100  2.31078900
H 0   1.19450127 -1.80013300  1.93766400
C 0  -1.43270174  2.24305700  3.60206400
H 0  -1.56386033  2.78230300  4.52521400
C 0  -1.75525421 -2.23527500  0.55555000
H 0  -2.46640791 -1.73379100  0.73935900
C 0  -1.27883972  1.73853600 -3.38703700
H 0  -1.30935567  2.73906600 -3.80157800
C 0   1.10822626  0.83928600 -1.16052200
C 0  -1.22424621  3.13328800  0.02989000
H 0  -1.26099576  4.18685100  0.28738700
C 0  -1.36944264  0.65295200 -4.22298900
H 0  -1.46751548  0.79238800 -5.28919700
C 0  -1.16356894  2.86449500 -1.28690100
H 0  -1.15417374  3.73278800 -1.93870900
C 0   1.27939313  1.73861300  3.38691600
H 0   1.30987821  2.73914300  3.80146400
C 0  -1.26238042  0.86412900  3.61171400
H 0  -1.24847812  0.31624300  4.54594900
C 0  -1.20838551 -0.78825600 -2.31093200
H 0  -1.19401487 -1.80022700 -1.93784700
C 0   1.37045911  0.65303000  4.22277600
H 0   1.46891746  0.79245400  5.28892300
C 0   1.42094381  2.91106900 -2.39767900
H 0   1.54077816  3.98295200 -2.37956000
C 0   1.34705393 -0.62738900  3.66585200
H 0   1.43509760 -1.50257400  4.29316200
C 0   1.43258955  2.24335300 -3.60198400
H 0   1.56375341  2.78267900 -4.52508500
C 0   1.22311906  3.13343700 -0.02990000
H 0   1.25913374  4.18703300 -0.28744400
C 0  -1.34614287 -0.62746600 -3.66607200
H 0  -1.43391624 -1.50265200 -4.29345000
C 0   1.16279492  2.86460000  1.28690700
H 0   1.15296000  3.73287300  1.93872900
C 0   1.10245346  0.19499300 -2.42782300
H 0   0.96399661 -0.86718000 -2.47590300
C 0   1.26262362  0.86435600 -3.61171000
H 0   1.24899464  0.31649400 -4.54596700

