%chk=opt.chk
%mem=16GB
%nprocshared=24
#p opt UM062X/6-311+G** nosymm int=superfine SCF=NoVarAcc

Title Card Required

1 2
C -1 -6.281027    0.000000    0.000000
C -1  6.281027    0.000000    0.000000
H 0  -6.816788   -0.956248   -0.000128
H 0  -6.816729    0.956281   -0.000128
H 0   6.687797    1.002413    0.000012
H 0   6.687734   -1.002439    0.000012

