%chk=opt.chk
%mem=16GB
%nprocshared=24
#p opt UM062X/6-311+G** nosymm int=superfine SCF=NoVarAcc

Title Card Required

1 2
C -1 -6.281027    0.000000    0.000000
C -1  6.281027    0.000000    0.000000
H 0  -6.841232   -0.942237    0.000000
H 0  -6.841172    0.942272    0.000000
H 0   6.841232    0.942238    0.000000
H 0   6.841172   -0.942273    0.000000

