%chk=opt.chk
%mem=24GB
%nprocshared=28
#p opt UM062X/6-311+G** nosymm int=superfine 

Title Card Required

1 2
C -1  -1.89741381  0.00000000 -0.00000000
C -1   1.89741381  0.00000000 -0.00000000
C 0  -0.00014630 -1.98856500 -0.00626500
C 0   0.00001432 -3.39883100 -0.01071700
C 0  -1.14535303 -4.24606900  0.22573300
C 0  -1.38072313 -1.42477300  0.18087700
C 0   0.67378209 -5.63715200 -0.16281300
H 0   1.31996055 -6.50179000 -0.30831200
C 0  -1.91512327  0.78920500  1.20146600
C 0  -0.67338207 -5.63816300  0.12703300
H 0  -1.31944901 -6.50380800  0.26692800
C 0   1.14551570 -4.24438900 -0.25267800
C 0   1.38033948 -1.42348500 -0.19007300
C 0   2.40871082  2.14234500 -1.32746000
C 0  -2.16055124  0.35445900 -1.36980700
C 0  -2.37090302  2.75022300  2.60467900
H 0  -2.76260029  3.76040100  2.68886500
C 0  -2.38512788 -3.68227900  0.49339100
H 0  -3.29180525 -4.27011000  0.70123600
C 0  -2.58652159  1.63923000 -1.85430600
C 0   2.46540975 -2.26839800 -0.46237000
H 0   3.46321053 -1.81229400 -0.59929500
C 0   2.16057375  0.34580200  1.37186900
C 0   2.58776770  1.62727300  1.86419900
C 0   2.38514220 -3.67874100 -0.51698800
H 0   3.29188505 -4.26508000 -0.72872400
C 0  -2.40505435  2.13502500  1.34065100
C 0  -1.38708974  0.17930900  2.38518300
H 0  -1.00823310 -0.83322500  2.33620100
C 0   1.94746478 -0.66985100  2.35708400
H 0   1.67832188 -1.66852200  2.04270600
C 0  -1.85075843  2.12232200  3.72278700
H 0  -1.83958029  2.63208100  4.67823000
C 0  -2.46563789 -2.27164700  0.44763000
H 0  -3.46351541 -1.81652600  0.58725300
C 0  -2.69711109  1.84911600 -3.24158500
H 0  -3.01126425  2.83007500 -3.58446800
C 0   1.91562765  0.79678700 -1.19631800
C 0  -2.92656985  2.96691100  0.28298800
H 0  -3.29904249  3.93177600  0.62145700
C 0  -2.44369187  0.85593900 -4.16481800
H 0  -2.54979518  1.05634400 -5.22425100
C 0  -2.97548521  2.77043900 -1.04890800
H 0  -3.37551033  3.60329000 -1.62464100
C 0   2.69726558  1.82886600  3.25283500
H 0   3.01215842  2.80743600  3.60182900
C 0  -1.34479574  0.82120100  3.60110800
H 0  -0.92657622  0.30660300  4.46211700
C 0  -1.94896256 -0.65537200 -2.36124400
H 0  -1.68045193 -1.65615300 -2.05310600
C 0   2.44196082  0.83046500  4.16983900
H 0   2.54720372  1.02450400  5.23054200
C 0   2.37539535  2.76528700 -2.58776500
H 0   2.76975672  3.77493500 -2.66614300
C 0   2.08413865 -0.44137400  3.70613100
H 0   1.91659138 -1.25390600  4.40380800
C 0   1.85247004  2.14556700 -3.70912400
H 0   1.84176661  2.66123700 -4.66140000
C 0   2.93235842  2.96658800 -0.26502200
H 0   3.30749208  3.93248100 -0.59768800
C 0  -2.08648354 -0.41881300 -3.70888900
H 0  -1.92017215 -1.22739400 -4.41143000
C 0   2.97967164  2.76231300  1.06583900
H 0   3.38103597  3.59095800  1.64672700
C 0   1.38488603  0.19544800 -2.38328500
H 0   1.00347477 -0.81642800 -2.34013300
C 0   1.34288156  0.84503700 -3.59505800
H 0   0.92210435  0.33701200 -4.45876200

