%chk=opt.chk
%mem=16GB
%nprocshared=28
#p UM062X/6-311+G** force int=superfine 

Title Card Required

1 2
C   -0.570669   0.000000   0.000000
C   0.570669   0.000000   0.000000
H   1.153823   -0.795896   0.465786
H   -1.077958   -0.997041   -0.266573
H   1.077985   0.997071   0.266307
H   1.078103   0.256691   -0.999455
H   -1.153825   0.795943   -0.465703
H   -1.078134   -0.256958   0.999347

