%chk=opt.chk
%mem=16GB
%nprocshared=28
#p UM062X/6-311+G** force int=superfine 

Title Card Required

1 2
C   -0.584936   0.000000   0.000000
C   0.584936   0.000000   0.000000
H   1.161184   -0.798790   0.467448
H   -1.083566   -0.998880   -0.270012
H   1.083594   0.998912   0.269747
H   1.083724   0.254646   -1.002725
H   -1.161186   0.798837   -0.467366
H   -1.083756   -0.254912   1.002619

