%chk=opt.chk
%mem=16GB
%nprocshared=28
#p UM062X/6-311+G** force int=superfine 

Title Card Required

1 2
C   -0.613469   0.000000   0.000000
C   0.613469   0.000000   0.000000
H   1.176511   -0.804302   0.470617
H   -1.095782   -1.002529   -0.276358
H   1.095811   1.002563   0.276094
H   1.095960   0.250978   -1.008991
H   -1.176513   0.804347   -0.470536
H   -1.095995   -0.251242   1.008887

