%chk=opt.chk
%mem=16GB
%nprocshared=28
#p UM062X/6-311+G** force int=superfine 

Title Card Required

1 2
C   -0.627736   0.000000   0.000000
C   0.627736   0.000000   0.000000
H   1.184436   -0.806933   0.472146
H   -1.102305   -1.004334   -0.279321
H   1.102335   1.004368   0.279057
H   1.102503   0.249330   -1.011990
H   -1.184438   0.806978   -0.472066
H   -1.102539   -0.249593   1.011888

