%chk=opt.chk
%mem=16GB
%nprocshared=28
#p UM062X/6-311+G** force int=superfine 

Title Card Required

1 2
C   -0.642002   0.000000   0.000000
C   0.642002   0.000000   0.000000
H   1.192183   -0.809714   0.473763
H   -1.109410   -1.006017   -0.282208
H   1.109442   1.006051   0.281951
H   1.109649   0.247736   -1.014818
H   -1.192185   0.809757   -0.473687
H   -1.109686   -0.247991   1.014718

