%chk=opt.chk
%mem=16GB
%nprocshared=28
#p UM062X/6-311+G** force int=superfine 

Title Card Required

1 2
C   -0.670536   0.000000   0.000000
C   0.670536   0.000000   0.000000
H   1.208814   -0.814363   0.477004
H   -1.122729   -1.009860   -0.288279
H   1.122763   1.009894   0.288023
H   1.124409   0.245364   -1.019859
H   -1.208815   0.814404   -0.476931
H   -1.124448   -0.245614   1.019762

