%chk=opt.chk
%mem=16GB
%nprocshared=28
#p UM062X/6-311+G** force int=superfine 

Title Card Required

1 2
C   -0.684803   0.000000   0.000000
C   0.684803   0.000000   0.000000
H   1.217121   -0.816990   0.478184
H   -1.130643   -1.011004   -0.292091
H   1.130667   1.011024   0.291940
H   1.131476   0.245227   -1.022359
H   -1.217120   0.817014   -0.478145
H   -1.131499   -0.245363   1.022303

