%chk=opt.chk
%mem=16GB
%nprocshared=28
#p UM062X/6-311+G** force int=superfine 

Title Card Required

1 2
C   -0.713336   0.000000   0.000000
C   0.713336   0.000000   0.000000
H   1.234423   -0.823944   0.476683
H   -1.145777   -1.013278   -0.299076
H   1.145789   1.013284   0.299062
H   1.145583   0.245724   -1.027633
H   -1.234414   0.823947   -0.476688
H   -1.145566   -0.245687   1.027644

