%chk=opt.chk
%mem=16GB
%nprocshared=28
#p UM062X/6-311+G** force int=superfine 

Title Card Required

1 2
C   -0.727603   0.000000   0.000000
C   0.727603   0.000000   0.000000
H   0.719717   -1.026226   0.568436
H   -1.242487   -0.692630   -0.664207
H   1.242474   0.692624   0.664223
H   1.242125   -0.195096   -0.939776
H   -0.719718   1.026216   -0.568457
H   -1.242110   0.195113   0.939782

