%chk=opt.chk
%mem=16GB
%nprocshared=28
#p UM062X/6-311+G** force int=superfine 

Title Card Required

1 2
C   -0.770403   0.000000   0.000000
C   0.770403   0.000000   0.000000
H   1.254149   -0.919447   0.317984
H   -1.254651   -0.918333   -0.320208
H   1.254609   0.917787   0.322097
H   0.668047   0.002308   -1.146483
H   -1.255265   0.918774   -0.318232
H   -0.665583   -0.000541   1.146589

