%chk=opt.chk
%mem=16GB
%nprocshared=28
#p UM062X/6-311+G** force int=superfine 

Title Card Required

1 2
C   -0.784670   0.000000   0.000000
C   0.784670   0.000000   0.000000
H   1.256506   -0.919266   0.334069
H   -1.256691   -0.920433   -0.330228
H   1.257347   0.919928   0.330794
H   0.661982   -0.001487   -1.138335
H   -1.257156   0.918769   -0.334605
H   -0.661989   0.003341   1.138331

