%chk=opt.chk
%mem=16GB
%nprocshared=28
#p UM062X/6-311+G** force int=superfine 

Title Card Required

1 2
C   -0.798936   0.000000   0.000000
C   0.798936   0.000000   0.000000
H   1.257701   -0.921520   0.344228
H   -1.257760   -0.919960   -0.348334
H   1.258493   0.919255   0.349367
H   0.661153   0.003601   -1.130192
H   -1.258405   0.920980   -0.344717
H   -0.660511   -0.001997   1.130152

