%chk=opt.chk
%mem=16GB
%nprocshared=28
#p UM062X/6-311+G** force int=superfine 

Title Card Required

1 2
C   -0.813203   0.000000   0.000000
C   0.813203   0.000000   0.000000
H   1.258621   -0.916608   0.372487
H   -1.258518   -0.926248   -0.348026
H   1.258820   0.926020   0.348273
H   0.663901   -0.014466   -1.122855
H   -1.258909   0.916298   -0.372965
H   -0.664328   0.015553   1.122853

