%chk=opt.chk
%mem=16GB
%nprocshared=28
#p UM062X/6-311+G** force int=superfine 

Title Card Required

1 2
C   -0.827470   0.000000   0.000000
C   0.827470   0.000000   0.000000
H   1.257964   -0.922270   0.375335
H   -1.258596   -0.922868   -0.373054
H   1.259500   0.921959   0.374272
H   0.672094   -0.000449   -1.116626
H   -1.259180   0.921462   -0.375876
H   -0.670758   0.001754   1.116547

