%chk=opt.chk
%mem=16GB
%nprocshared=28
#p UM062X/6-311+G** force int=superfine 

Title Card Required

1 2
C   -0.870270   0.000000   0.000000
C   0.870270   0.000000   0.000000
H   1.058465   -0.928109   0.537005
H   -1.056717   -0.929530   -0.535284
H   1.056744   0.929483   0.535355
H   1.056713   -0.000930   -1.072638
H   -1.058468   0.928064   -0.537083
H   -1.056739   0.001017   1.072633

