%chk=opt.chk
%mem=16GB
%nprocshared=28
#p UM062X/6-311+G** force int=superfine 

Title Card Required

1 2
C   -0.898803   0.000000   0.000000
C   0.898803   0.000000   0.000000
H   1.074887   -0.928959   0.537531
H   -1.073805   -0.930223   -0.535764
H   1.073847   0.930205   0.535781
H   1.073812   -0.000992   -1.073477
H   -1.074890   0.928943   -0.537559
H   -1.073851   0.001019   1.073470

