%chk=opt.chk
%mem=16GB
%nprocshared=28
#p UM062X/6-311+G** force int=superfine 

Title Card Required

1 2
C   -0.913070   0.000000   0.000000
C   0.913070   0.000000   0.000000
H   1.082587   -0.929525   0.537885
H   -1.081791   -0.930723   -0.536108
H   1.081906   0.930730   0.536058
H   1.081796   -0.001031   -1.074083
H   -1.082594   0.929526   -0.537880
H   -1.081903   0.000992   1.074064

