%chk=opt.chk
%mem=16GB
%nprocshared=28
#p UM062X/6-311+G** force int=superfine 

Title Card Required

1 2
C   -0.927337   0.000000   0.000000
C   0.927337   0.000000   0.000000
H   1.091810   -0.929900   0.538108
H   -1.091072   -0.931083   -0.536326
H   1.091196   0.931095   0.536264
H   1.091077   -0.001041   -1.074503
H   -1.091817   0.929908   -0.538093
H   -1.091193   0.000988   1.074484

