%chk=opt.chk
%mem=16GB
%nprocshared=28
#p UM062X/6-311+G** force int=superfine 

Title Card Required

1 2
C   -0.955870   0.000000   0.000000
C   0.955870   0.000000   0.000000
H   1.110257   -0.930712   0.538591
H   -1.109593   -0.931872   -0.536801
H   1.109740   0.931897   0.536715
H   1.109606   -0.001060   -1.075424
H   -1.110264   0.930732   -0.538554
H   -1.109742   0.000979   1.075403

