%chk=opt.chk
%mem=16GB
%nprocshared=28
#p UM062X/6-311+G** force int=superfine 

Title Card Required

1 2
C   -0.970137   0.000000   0.000000
C   0.970137   0.000000   0.000000
H   1.119528   -0.931129   0.538837
H   -1.118886   -0.932281   -0.537044
H   1.119046   0.932312   0.536945
H   1.118866   -0.001069   -1.075904
H   -1.119536   0.931155   -0.538789
H   -1.119015   0.000974   1.075883

