%chk=opt.chk
%mem=16GB
%nprocshared=28
#p UM062X/6-311+G** force int=superfine 

Title Card Required

1 2
C   -0.984404   0.000000   0.000000
C   0.984404   0.000000   0.000000
H   1.128826   -0.931542   0.539085
H   -1.128199   -0.932688   -0.537290
H   1.128374   0.932725   0.537179
H   1.128218   -0.001078   -1.076374
H   -1.128835   0.931575   -0.539026
H   -1.128380   0.000969   1.076351

