%chk=opt.chk
%mem=16GB
%nprocshared=28
#p UM062X/6-311+G** force int=superfine 

Title Card Required

1 2
C   -1.012937   0.000000   0.000000
C   1.012937   0.000000   0.000000
H   1.147840   -0.932310   0.539533
H   -1.147228   -0.933447   -0.537736
H   1.147434   0.933488   0.537611
H   1.147216   -0.001088   -1.077258
H   -1.147850   0.932348   -0.539466
H   -1.147409   0.000964   1.077234

