%chk=opt.chk
%mem=16GB
%nprocshared=28
#p UM062X/6-311+G** force int=superfine 

Title Card Required

1 2
C   -1.027204   0.000000   0.000000
C   1.027204   0.000000   0.000000
H   1.157589   -0.932662   0.539739
H   -1.156978   -0.933795   -0.537940
H   1.157201   0.933839   0.537810
H   1.156959   -0.001092   -1.077663
H   -1.157600   0.932702   -0.539668
H   -1.157169   0.000962   1.077638

