%chk=opt.chk
%mem=16GB
%nprocshared=28
#p UM062X/6-311+G** force int=superfine 

Title Card Required

1 2
C   -1.041471   0.000000   0.000000
C   1.041471   0.000000   0.000000
H   1.167477   -0.932993   0.539936
H   -1.166866   -0.934123   -0.538137
H   1.167106   0.934169   0.538001
H   1.166918   -0.001096   -1.078036
H   -1.167489   0.933035   -0.539861
H   -1.167145   0.000960   1.078009

