%chk=opt.chk
%mem=16GB
%nprocshared=28
#p UM062X/6-311+G** force int=superfine 

Title Card Required

1 2
C   -1.070004   0.000000   0.000000
C   1.070004   0.000000   0.000000
H   1.187844   -0.933584   0.540276
H   -1.187223   -0.934709   -0.538475
H   1.187498   0.934758   0.538329
H   1.187184   -0.001103   -1.078724
H   -1.187858   0.933630   -0.540195
H   -1.187444   0.000956   1.078696

