%chk=opt.chk
%mem=16GB
%nprocshared=28
#p UM062X/6-311+G** force int=superfine 

Title Card Required

1 2
C   -1.084271   0.000000   0.000000
C   1.084271   0.000000   0.000000
H   1.198267   -0.933848   0.540430
H   -1.197639   -0.934970   -0.538629
H   1.197932   0.935021   0.538479
H   1.197630   -0.001106   -1.079024
H   -1.198282   0.933894   -0.540347
H   -1.197908   0.000955   1.078994

