%chk=opt.chk
%mem=16GB
%nprocshared=28
#p UM062X/6-311+G** force int=superfine 

Title Card Required

1 2
C   -1.127071   0.000000   0.000000
C   1.127071   0.000000   0.000000
H   1.230629   -0.934513   0.540816
H   -1.229972   -0.935630   -0.539014
H   1.230319   0.935685   0.538852
H   1.229929   -0.001114   -1.079792
H   -1.230647   0.934564   -0.540725
H   -1.230258   0.000950   1.079760

