%chk=opt.chk
%mem=16GB
%nprocshared=28
#p UM062X/6-311+G** force int=superfine 

Title Card Required

1 2
C   -1.155604   0.000000   0.000000
C   1.155604   0.000000   0.000000
H   1.253033   -0.934868   0.541027
H   -1.252356   -0.935983   -0.539223
H   1.252737   0.936040   0.539054
H   1.252381   -0.001118   -1.080194
H   -1.253053   0.934922   -0.540929
H   -1.252742   0.000948   1.080161

