%chk=opt.chk
%mem=16GB
%nprocshared=28
#p UM062X/6-311+G** force int=superfine 

Title Card Required

1 2
C   -1.169871   0.000000   0.000000
C   1.169871   0.000000   0.000000
H   1.264479   -0.935023   0.541116
H   -1.263790   -0.936137   -0.539312
H   1.264187   0.936196   0.539141
H   1.263790   -0.001120   -1.080375
H   -1.264500   0.935079   -0.541017
H   -1.264167   0.000947   1.080342

