%chk=opt.chk
%mem=16GB
%nprocshared=28
#p UM062X/6-311+G** force int=superfine 

Title Card Required

1 2
C   -1.198404   0.000000   0.000000
C   1.198404   0.000000   0.000000
H   1.287734   -0.935302   0.541279
H   -1.287019   -0.936414   -0.539474
H   1.287447   0.936475   0.539297
H   1.287000   -0.001124   -1.080698
H   -1.287757   0.935360   -0.541175
H   -1.287406   0.000944   1.080664

