%chk=opt.chk
%mem=16GB
%nprocshared=28
#p UM062X/6-311+G** force int=superfine 

Title Card Required

1 2
C   -1.255471   0.000000   0.000000
C   1.255471   0.000000   0.000000
H   1.335625   -0.935770   0.541553
H   -1.334855   -0.936879   -0.539746
H   1.335334   0.936946   0.539560
H   1.334773   -0.001131   -1.081240
H   -1.335651   0.935835   -0.541438
H   -1.335227   0.000940   1.081207

