%chk=opt.chk
%mem=16GB
%nprocshared=28
#p UM062X/6-311+G** force int=superfine 

Title Card Required

1 2
C   -1.269738   0.000000   0.000000
C   1.269738   0.000000   0.000000
H   1.347775   -0.935876   0.541617
H   -1.346991   -0.936986   -0.539809
H   1.347480   0.937054   0.539621
H   1.346924   -0.001133   -1.081362
H   -1.347801   0.935943   -0.541499
H   -1.347389   0.000939   1.081329

