%chk=opt.chk
%mem=16GB
%nprocshared=28
#p UM062X/6-311+G** force int=superfine 

Title Card Required

1 2
C   -1.298272   0.000000   0.000000
C   1.298272   0.000000   0.000000
H   1.372202   -0.936082   0.541745
H   -1.371386   -0.937190   -0.539936
H   1.371894   0.937262   0.539744
H   1.371430   -0.001136   -1.081595
H   -1.372228   0.936152   -0.541622
H   -1.371912   0.000937   1.081563

