%chk=opt.chk
%mem=16GB
%nprocshared=28
#p UM062X/6-311+G** force int=superfine 

Title Card Required

1 2
C   -1.326805   0.000000   0.000000
C   1.326805   0.000000   0.000000
H   1.397710   -0.936147   0.541798
H   -1.396665   -0.937264   -0.539998
H   1.397283   0.937347   0.539775
H   1.396659   -0.001142   -1.081693
H   -1.397742   0.936222   -0.541665
H   -1.397242   0.000918   1.081656

