%chk=opt.chk
%mem=16GB
%nprocshared=28
#p UM062X/6-311+G** force int=superfine 

Title Card Required

1 2
C   -1.341072   0.000000   0.000000
C   1.341072   0.000000   0.000000
H   1.410110   -0.936260   0.541862
H   -1.409046   -0.937377   -0.540061
H   1.409676   0.937461   0.539838
H   1.408998   -0.001143   -1.081824
H   -1.410143   0.936337   -0.541727
H   -1.409590   0.000919   1.081788

