%chk=opt.chk
%mem=16GB
%nprocshared=28
#p UM062X/6-311+G** force int=superfine 

Title Card Required

1 2
C   -1.369605   0.000000   0.000000
C   1.369605   0.000000   0.000000
H   1.435037   -0.936472   0.541990
H   -1.433943   -0.937588   -0.540188
H   1.434586   0.937673   0.539965
H   1.433980   -0.001146   -1.082063
H   -1.435070   0.936552   -0.541851
H   -1.434588   0.000921   1.082028

