%chk=opt.chk
%mem=16GB
%nprocshared=28
#p UM062X/6-311+G** force int=superfine 

Title Card Required

1 2
C   -1.383872   0.000000   0.000000
C   1.383872   0.000000   0.000000
H   1.447520   -0.936573   0.542054
H   -1.446412   -0.937688   -0.540251
H   1.447063   0.937774   0.540028
H   1.446541   -0.001147   -1.082175
H   -1.447553   0.936654   -0.541912
H   -1.447157   0.000922   1.082140

