%chk=opt.chk
%mem=16GB
%nprocshared=28
#p UM062X/6-311+G** force int=superfine 

Title Card Required

1 2
C   -1.440939   0.000000   0.000000
C   1.440939   0.000000   0.000000
H   1.498468   -0.936920   0.542256
H   -1.497282   -0.938034   -0.540451
H   1.497974   0.938121   0.540228
H   1.497323   -0.001152   -1.082581
H   -1.498502   0.937005   -0.542106
H   -1.497972   0.000926   1.082548

