%chk=opt.chk
%mem=16GB
%nprocshared=28
#p UM062X/6-311+G** force int=superfine 

Title Card Required

1 2
C   -1.483739   0.000000   0.000000
C   1.483739   0.000000   0.000000
H   1.537268   -0.937132   0.542382
H   -1.536027   -0.938245   -0.540576
H   1.536749   0.938334   0.540353
H   1.536016   -0.001155   -1.082831
H   -1.537302   0.937222   -0.542226
H   -1.536690   0.000929   1.082799

