%chk=opt.chk
%mem=16GB
%nprocshared=28
#p UM062X/6-311+G** force int=superfine 

Title Card Required

1 2
C   -1.498006   0.000000   0.000000
C   1.498006   0.000000   0.000000
H   1.550358   -0.937193   0.542417
H   -1.549094   -0.938306   -0.540610
H   1.549829   0.938394   0.540388
H   1.549061   -0.001156   -1.082902
H   -1.550392   0.937283   -0.542259
H   -1.549745   0.000930   1.082870

