%chk=opt.chk
%mem=16GB
%nprocshared=28
#p UM062X/6-311+G** force int=superfine 

Title Card Required

1 2
C   -1.512272   0.000000   0.000000
C   1.512272   0.000000   0.000000
H   1.563476   -0.937250   0.542451
H   -1.562199   -0.938362   -0.540644
H   1.562941   0.938451   0.540422
H   1.562196   -0.001156   -1.082965
H   -1.563510   0.937341   -0.542292
H   -1.562889   0.000931   1.082934

