%chk=opt.chk
%mem=16GB
%nprocshared=28
#p UM062X/6-311+G** force int=superfine 

Title Card Required

1 2
C   -1.526539   0.000000   0.000000
C   1.526539   0.000000   0.000000
H   1.576634   -0.937303   0.542485
H   -1.575338   -0.938415   -0.540678
H   1.576088   0.938504   0.540456
H   1.575389   -0.001157   -1.083025
H   -1.576667   0.937395   -0.542324
H   -1.576089   0.000932   1.082993

