%chk=opt.chk
%mem=16GB
%nprocshared=28
#p UM062X/6-311+G** force int=superfine 

Title Card Required

1 2
C   -1.540806   0.000000   0.000000
C   1.540806   0.000000   0.000000
H   1.589817   -0.937353   0.542516
H   -1.588504   -0.938465   -0.540709
H   1.589264   0.938554   0.540486
H   1.588576   -0.001158   -1.083082
H   -1.589851   0.937446   -0.542354
H   -1.589283   0.000933   1.083051

