%chk=opt.chk
%mem=16GB
%nprocshared=28
#p UM062X/6-311+G** force int=superfine 

Title Card Required

1 2
C   -1.555072   0.000000   0.000000
C   1.555072   0.000000   0.000000
H   1.603066   -0.937400   0.542543
H   -1.601732   -0.938511   -0.540735
H   1.602503   0.938601   0.540513
H   1.601759   -0.001159   -1.083138
H   -1.603100   0.937494   -0.542379
H   -1.602473   0.000934   1.083108

