%chk=opt.chk
%mem=16GB
%nprocshared=28
#p UM062X/6-311+G** force int=superfine 

Title Card Required

1 2
C   -1.597873   0.000000   0.000000
C   1.597873   0.000000   0.000000
H   1.643199   -0.937515   0.542611
H   -1.641812   -0.938626   -0.540803
H   1.642614   0.938715   0.540582
H   1.641848   -0.001161   -1.083270
H   -1.643233   0.937612   -0.542443
H   -1.642592   0.000938   1.083240

