%chk=opt.chk
%mem=16GB
%nprocshared=28
#p UM062X/6-311+G** force int=superfine 

Title Card Required

1 2
C   -1.640673   0.000000   0.000000
C   1.640673   0.000000   0.000000
H   1.683524   -0.937604   0.542665
H   -1.682082   -0.938714   -0.540857
H   1.682910   0.938804   0.540637
H   1.682104   -0.001164   -1.083376
H   -1.683557   0.937703   -0.542493
H   -1.682867   0.000941   1.083346

