%chk=opt.chk
%mem=16GB
%nprocshared=28
#p UM062X/6-311+G** force int=superfine 

Title Card Required

1 2
C   -1.683473   0.000000   0.000000
C   1.683473   0.000000   0.000000
H   1.723159   -0.937588   0.542646
H   -1.721813   -0.938692   -0.540829
H   1.722602   0.938782   0.540617
H   1.721902   -0.001161   -1.083338
H   -1.723201   0.937683   -0.542479
H   -1.722647   0.000936   1.083312

