%chk=opt.chk
%mem=16GB
%nprocshared=28
#p UM062X/6-311+G** force int=superfine 

Title Card Required

1 2
C   -1.726273   0.000000   0.000000
C   1.726273   0.000000   0.000000
H   1.763897   -0.937624   0.542668
H   -1.762492   -0.938728   -0.540850
H   1.763309   0.938818   0.540639
H   1.762496   -0.001161   -1.083386
H   -1.763941   0.937721   -0.542498
H   -1.763267   0.000937   1.083361

