%chk=opt.chk
%mem=16GB
%nprocshared=28
#p UM062X/6-311+G** force int=superfine 

Title Card Required

1 2
C   -1.740540   0.000000   0.000000
C   1.740540   0.000000   0.000000
H   1.777473   -0.937632   0.542673
H   -1.776048   -0.938736   -0.540855
H   1.776872   0.938826   0.540644
H   1.776043   -0.001162   -1.083397
H   -1.777518   0.937729   -0.542503
H   -1.776822   0.000938   1.083372

