%chk=opt.chk
%mem=16GB
%nprocshared=28
#p UM062X/6-311+G** force int=superfine 

Title Card Required

1 2
C   -1.754807   0.000000   0.000000
C   1.754807   0.000000   0.000000
H   1.791022   -0.937638   0.542677
H   -1.789578   -0.938742   -0.540859
H   1.790411   0.938833   0.540648
H   1.789584   -0.001162   -1.083404
H   -1.791066   0.937736   -0.542506
H   -1.790371   0.000938   1.083379

