%chk=opt.chk
%mem=16GB
%nprocshared=28
#p UM062X/6-311+G** force int=superfine 

Title Card Required

1 2
C   -1.783340   0.000000   0.000000
C   1.783340   0.000000   0.000000
H   1.818017   -0.937650   0.542687
H   -1.816537   -0.938752   -0.540868
H   1.817396   0.938844   0.540657
H   1.816648   -0.001164   -1.083408
H   -1.818063   0.937749   -0.542514
H   -1.817459   0.000939   1.083384

