%chk=opt.chk
%mem=16GB
%nprocshared=28
#p UM062X/6-311+G** force int=superfine 

Title Card Required

1 2
C   -1.797607   0.000000   0.000000
C   1.797607   0.000000   0.000000
H   1.831628   -0.937652   0.542686
H   -1.830123   -0.938754   -0.540868
H   1.830996   0.938846   0.540657
H   1.830128   -0.001164   -1.083415
H   -1.831675   0.937751   -0.542513
H   -1.830954   0.000940   1.083391

