%chk=opt.chk
%mem=16GB
%nprocshared=28
#p UM062X/6-311+G** force int=superfine 

Title Card Required

1 2
C   -1.811873   0.000000   0.000000
C   1.811873   0.000000   0.000000
H   1.845333   -0.937651   0.542685
H   -1.843805   -0.938753   -0.540867
H   1.844689   0.938845   0.540656
H   1.843722   -0.001164   -1.083420
H   -1.845380   0.937751   -0.542511
H   -1.844560   0.000940   1.083396

