%chk=opt.chk
%mem=16GB
%nprocshared=28
#p UM062X/6-311+G** force int=superfine 

Title Card Required

1 2
C   -1.826140   0.000000   0.000000
C   1.826140   0.000000   0.000000
H   1.859043   -0.937650   0.542687
H   -1.857499   -0.938752   -0.540867
H   1.858390   0.938844   0.540657
H   1.857484   -0.001164   -1.083418
H   -1.859091   0.937750   -0.542512
H   -1.858327   0.000941   1.083394

