%chk=opt.chk
%mem=16GB
%nprocshared=28
#p UM062X/6-311+G** force int=superfine 

Title Card Required

1 2
C   -1.840407   0.000000   0.000000
C   1.840407   0.000000   0.000000
H   1.872777   -0.937648   0.542686
H   -1.871214   -0.938749   -0.540867
H   1.872114   0.938841   0.540657
H   1.871240   -0.001165   -1.083413
H   -1.872826   0.937748   -0.542510
H   -1.872089   0.000941   1.083390

