%chk=opt.chk
%mem=16GB
%nprocshared=28
#p UM062X/6-311+G** force int=superfine 

Title Card Required

1 2
C   -1.868940   0.000000   0.000000
C   1.868940   0.000000   0.000000
H   1.900179   -0.937637   0.542682
H   -1.898586   -0.938738   -0.540862
H   1.899501   0.938830   0.540653
H   1.898657   -0.001166   -1.083398
H   -1.900228   0.937739   -0.542505
H   -1.899522   0.000942   1.083375

