%chk=opt.chk
%mem=16GB
%nprocshared=28
#p UM062X/6-311+G** force int=superfine 

Title Card Required

1 2
C   -1.883207   0.000000   0.000000
C   1.883207   0.000000   0.000000
H   1.913812   -0.937631   0.542679
H   -1.912200   -0.938732   -0.540859
H   1.913128   0.938824   0.540650
H   1.912295   -0.001166   -1.083388
H   -1.913861   0.937733   -0.542501
H   -1.913170   0.000943   1.083365

