%chk=opt.chk
%mem=16GB
%nprocshared=28
#p UM062X/6-311+G** force int=superfine 

Title Card Required

1 2
C   -1.897474   0.000000   0.000000
C   1.897474   0.000000   0.000000
H   1.927457   -0.937625   0.542675
H   -1.925825   -0.938724   -0.540854
H   1.926762   0.938817   0.540645
H   1.925855   -0.001166   -1.083382
H   -1.927507   0.937727   -0.542496
H   -1.926741   0.000943   1.083359

