%chk=opt.chk
%mem=16GB
%nprocshared=28
#p UM062X/6-311+G** force int=superfine 

Title Card Required

1 2
C   -1.911740   0.000000   0.000000
C   1.911740   0.000000   0.000000
H   1.941156   -0.937616   0.542669
H   -1.939499   -0.938716   -0.540849
H   1.940450   0.938809   0.540640
H   1.939442   -0.001167   -1.083377
H   -1.941207   0.937719   -0.542489
H   -1.940342   0.000944   1.083354

