%chk=opt.chk
%mem=16GB
%nprocshared=28
#p UM062X/6-311+G** force int=superfine 

Title Card Required

1 2
C   -1.940274   0.000000   0.000000
C   1.940274   0.000000   0.000000
H   1.968737   -0.937597   0.542661
H   -1.967043   -0.938696   -0.540840
H   1.968013   0.938789   0.540631
H   1.967061   -0.001167   -1.083355
H   -1.968789   0.937701   -0.542480
H   -1.967980   0.000945   1.083333

