%chk=opt.chk
%mem=16GB
%nprocshared=28
#p UM062X/6-311+G** force int=superfine 

Title Card Required

1 2
C   -1.954541   0.000000   0.000000
C   1.954541   0.000000   0.000000
H   1.982601   -0.937586   0.542655
H   -1.980891   -0.938685   -0.540834
H   1.981870   0.938778   0.540626
H   1.980944   -0.001168   -1.083340
H   -1.982654   0.937690   -0.542474
H   -1.981869   0.000945   1.083319

