%chk=opt.chk
%mem=16GB
%nprocshared=28
#p UM062X/6-311+G** force int=superfine 

Title Card Required

1 2
C   -1.968807   0.000000   0.000000
C   1.968807   0.000000   0.000000
H   1.996484   -0.937574   0.542649
H   -1.994759   -0.938672   -0.540828
H   1.995747   0.938765   0.540620
H   1.994841   -0.001168   -1.083324
H   -1.996537   0.937678   -0.542467
H   -1.995774   0.000945   1.083302

