%chk=opt.chk
%mem=16GB
%nprocshared=28
#p UM062X/6-311+G** force int=superfine 

Title Card Required

1 2
C   -1.983074   0.000000   0.000000
C   1.983074   0.000000   0.000000
H   2.010333   -0.937561   0.542642
H   -2.008595   -0.938659   -0.540821
H   2.009589   0.938752   0.540612
H   2.008669   -0.001168   -1.083308
H   -2.010387   0.937665   -0.542459
H   -2.009608   0.000946   1.083286

