%chk=opt.chk
%mem=16GB
%nprocshared=28
#p UM062X/6-311+G** force int=superfine 

Title Card Required

1 2
C   -2.025874   0.000000   0.000000
C   2.025874   0.000000   0.000000
H   2.051706   -0.937520   0.542618
H   -2.049906   -0.938617   -0.540797
H   2.050932   0.938711   0.540589
H   2.049887   -0.001169   -1.083265
H   -2.051761   0.937626   -0.542433
H   -2.050857   0.000947   1.083244

