%chk=opt.chk
%mem=16GB
%nprocshared=28
#p UM062X/6-311+G** force int=superfine 

Title Card Required

1 2
C   -2.040141   0.000000   0.000000
C   2.040141   0.000000   0.000000
H   2.065549   -0.937506   0.542611
H   -2.063730   -0.938603   -0.540789
H   2.064767   0.938697   0.540582
H   2.063725   -0.001169   -1.083249
H   -2.065605   0.937612   -0.542426
H   -2.064706   0.000948   1.083228

