%chk=opt.chk
%mem=16GB
%nprocshared=28
#p UM062X/6-311+G** force int=superfine 

Title Card Required

1 2
C   -2.054408   0.000000   0.000000
C   2.054408   0.000000   0.000000
H   2.079454   -0.937492   0.542604
H   -2.077619   -0.938588   -0.540782
H   2.078663   0.938682   0.540575
H   2.077637   -0.001170   -1.083232
H   -2.079510   0.937598   -0.542417
H   -2.078626   0.000948   1.083211

