%chk=opt.chk
%mem=16GB
%nprocshared=28
#p UM062X/6-311+G** force int=superfine 

Title Card Required

1 2
C   -2.082941   0.000000   0.000000
C   2.082941   0.000000   0.000000
H   2.107385   -0.937463   0.542589
H   -2.105521   -0.938558   -0.540766
H   2.106586   0.938653   0.540560
H   2.105618   -0.001170   -1.083194
H   -2.107442   0.937570   -0.542401
H   -2.106624   0.000949   1.083174

