%chk=opt.chk
%mem=16GB
%nprocshared=28
#p UM062X/6-311+G** force int=superfine 

Title Card Required

1 2
C   -2.097208   0.000000   0.000000
C   2.097208   0.000000   0.000000
H   2.121401   -0.937448   0.542580
H   -2.119523   -0.938543   -0.540758
H   2.120594   0.938638   0.540551
H   2.119609   -0.001171   -1.083176
H   -2.121459   0.937556   -0.542392
H   -2.120620   0.000949   1.083156

