%chk=opt.chk
%mem=16GB
%nprocshared=28
#p UM062X/6-311+G** force int=superfine 

Title Card Required

1 2
C   -2.111475   0.000000   0.000000
C   2.111475   0.000000   0.000000
H   2.135368   -0.937433   0.542571
H   -2.133475   -0.938528   -0.540748
H   2.134551   0.938623   0.540542
H   2.133483   -0.001171   -1.083161
H   -2.135426   0.937541   -0.542382
H   -2.134499   0.000950   1.083141

