%chk=opt.chk
%mem=16GB
%nprocshared=28
#p UM062X/6-311+G** force int=superfine 

Title Card Required

1 2
C   -2.140008   0.000000   0.000000
C   2.140008   0.000000   0.000000
H   2.163137   -0.937404   0.542555
H   -2.161207   -0.938498   -0.540732
H   2.162301   0.938593   0.540526
H   2.161210   -0.001171   -1.083129
H   -2.163196   0.937512   -0.542365
H   -2.162247   0.000951   1.083110

