%chk=opt.chk
%mem=16GB
%nprocshared=28
#p UM062X/6-311+G** force int=superfine 

Title Card Required

1 2
C   -2.154275   0.000000   0.000000
C   2.154275   0.000000   0.000000
H   2.177070   -0.937389   0.542547
H   -2.175120   -0.938483   -0.540724
H   2.176226   0.938578   0.540519
H   2.175160   -0.001172   -1.083112
H   -2.177129   0.937498   -0.542357
H   -2.176207   0.000951   1.083093

