%chk=opt.chk
%mem=16GB
%nprocshared=28
#p UM062X/6-311+G** force int=superfine 

Title Card Required

1 2
C   -2.182808   0.000000   0.000000
C   2.182808   0.000000   0.000000
H   2.205064   -0.937359   0.542530
H   -2.203083   -0.938452   -0.540707
H   2.204206   0.938547   0.540502
H   2.203099   -0.001172   -1.083077
H   -2.205125   0.937468   -0.542339
H   -2.204161   0.000952   1.083059

