%chk=opt.chk
%mem=16GB
%nprocshared=28
#p UM062X/6-311+G** force int=superfine 

Title Card Required

1 2
C   -2.197075   0.000000   0.000000
C   2.197075   0.000000   0.000000
H   2.219092   -0.937345   0.542523
H   -2.217096   -0.938438   -0.540699
H   2.218230   0.938533   0.540494
H   2.217136   -0.001172   -1.083059
H   -2.219153   0.937454   -0.542331
H   -2.218209   0.000952   1.083041

