%chk=opt.chk
%mem=16GB
%nprocshared=28
#p UM062X/6-311+G** force int=superfine 

Title Card Required

1 2
C   -2.211342   0.000000   0.000000
C   2.211342   0.000000   0.000000
H   2.233166   -0.937332   0.542516
H   -2.231156   -0.938424   -0.540692
H   2.232299   0.938520   0.540487
H   2.231243   -0.001172   -1.083041
H   -2.233228   0.937442   -0.542324
H   -2.232324   0.000953   1.083023

