%chk=opt.chk
%mem=16GB
%nprocshared=28
#p UM062X/6-311+G** force int=superfine 

Title Card Required

1 2
C   -2.225608   0.000000   0.000000
C   2.225608   0.000000   0.000000
H   2.247227   -0.937319   0.542509
H   -2.245205   -0.938411   -0.540685
H   2.246353   0.938507   0.540480
H   2.245295   -0.001173   -1.083025
H   -2.247289   0.937429   -0.542316
H   -2.246381   0.000953   1.083007

