%chk=opt.chk
%mem=16GB
%nprocshared=28
#p UM062X/6-311+G** force int=superfine 

Title Card Required

1 2
C   -2.254142   0.000000   0.000000
C   2.254142   0.000000   0.000000
H   2.275214   -0.937294   0.542493
H   -2.273156   -0.938386   -0.540669
H   2.274317   0.938482   0.540465
H   2.273131   -0.001173   -1.083001
H   -2.275277   0.937404   -0.542300
H   -2.274228   0.000954   1.082983

