%chk=opt.chk
%mem=16GB
%nprocshared=28
#p UM062X/6-311+G** force int=superfine 

Title Card Required

1 2
C   -2.268408   0.000000   0.000000
C   2.268408   0.000000   0.000000
H   2.289186   -0.937281   0.542487
H   -2.287117   -0.938373   -0.540662
H   2.288285   0.938469   0.540459
H   2.287094   -0.001173   -1.082986
H   -2.289249   0.937392   -0.542293
H   -2.288198   0.000954   1.082969

