%chk=opt.chk
%mem=24GB
%nprocshared=28
#p opt UM062X/6-311+G** nosymm int=superfine SCF=(Tight,MaxCycle=200)

Title Card Required

1 2
C -1  -1.01296953  0.00000000  0.00000000
C -1   1.01296953  0.00000000 -0.00000000
C 0   0.00000752 -2.15641600  0.00035500
C 0   0.00001420 -3.53176600  0.00057200
C 0  -0.94440441 -4.32427500  0.27970800
C 0  -1.01216514 -1.48110800  0.26120100
C 0   0.54975718 -5.72058700 -0.16372700
H 0   1.06012856 -6.59818100 -0.31972100
C 0  -1.22949447  0.83924400  1.16049800
C 0  -0.54995180 -5.72054000  0.16439000
H 0  -1.06040588 -6.59809200  0.32024000
C 0   0.94434093 -4.32435700 -0.27879900
C 0   1.01214342 -1.48115600 -0.26092300
C 0   1.39603792  2.25440400 -1.16868900
C 0  -1.22891478  0.30603300 -1.40736600
C 0  -1.57697181  2.91080500  2.39776700
H 0  -1.71035408  3.98261000  2.37971100
C 0  -1.92337246 -3.66420300  0.57630300
H 0  -2.68779104 -4.19797000  0.80625700
C 0  -1.29768538  1.60942100 -1.98926600
C 0   1.94714242 -2.23542700 -0.55533500
H 0   2.73605851 -1.73401000 -0.73946300
C 0   1.22907098  0.30612000  1.40730900
C 0   1.29772547  1.60950600  1.98921100
C 0   1.92324048 -3.66436000 -0.57587200
H 0   2.68757887 -4.19817900 -0.80608800
C 0  -1.39661928  2.25426600  1.16871200
C 0  -1.22279625  0.19487900  2.42776200
H 0  -1.06901192 -0.86727000  2.47572600
C 0   1.34110480 -0.78817100  2.31078900
H 0   1.32514985 -1.80013300  1.93766400
C 0  -1.58940349  2.24305700  3.60206400
H 0  -1.73490755  2.78230300  4.52521400
C 0  -1.94723514 -2.23527500  0.55555000
H 0  -2.73617127 -1.73379100  0.73935900
C 0  -1.41871281  1.73853600 -3.38703700
H 0  -1.45256645  2.73906600 -3.80157800
C 0   1.22943851  0.83928600 -1.16052200
C 0  -1.35814814  3.13328800  0.02989000
H 0  -1.39891718  4.18685100  0.28738700
C 0  -1.51922542  0.65295200 -4.22298900
H 0  -1.62802499  0.79238800 -5.28919700
C 0  -1.29083429  2.86449500 -1.28690100
H 0  -1.28041149  3.73278800 -1.93870900
C 0   1.41932675  1.73861300  3.38691600
H 0   1.45314614  2.73914300  3.80146400
C 0  -1.40045328  0.86412900  3.61171400
H 0  -1.38503041  0.31624300  4.54594900
C 0  -1.34055267 -0.78825600 -2.31093200
H 0  -1.32461025 -1.80022700 -1.93784700
C 0   1.52035307  0.65303000  4.22277600
H 0   1.62958031  0.79245400  5.28892300
C 0   1.57635954  2.91106900 -2.39767900
H 0   1.70930078  3.98295200 -2.37956000
C 0   1.49438795 -0.62738900  3.66585200
H 0   1.59206140 -1.50257400  4.29316200
C 0   1.58927904  2.24335300 -3.60198400
H 0   1.73478894  2.78267900 -4.52508500
C 0   1.35689771  3.13343700 -0.02990000
H 0   1.39685149  4.18703300 -0.28744400
C 0  -1.49337725 -0.62746600 -3.66607200
H 0  -1.59075082 -1.50265200 -4.29345000
C 0   1.28997561  2.86460000  1.28690700
H 0   1.27906500  3.73287300  1.93872900
C 0   1.22303431  0.19499300 -2.42782300
H 0   1.06943374 -0.86718000 -2.47590300
C 0   1.40072308  0.86435600 -3.61171000
H 0   1.38560342  0.31649400 -4.54596700

