%chk=force.chk 
%mem=4GB
%nprocshared=8
#p UM062X/6-311+G** force int=superfine  pop=saveNBO 

Title Card Required

0 1
Si -1.16981901 -0.00000000  0.00000000
Si  1.16981901  0.00000000  0.00000000
H  1.68180551 -1.39020122  0.00000000
H -1.68170776 -0.69501893  1.20404702
H  1.68190278  0.69518935 -1.20386028
H  1.68171476  0.69504821  1.20402854
H -1.68181151  1.39019933 -0.00011906
H -1.68190779 -0.69521870 -1.20384206

