%chk=opt.chk
%mem=4GB
%nprocshared=8
#p opt UM062X/6-311+G** nosymm int=superfine

Title Card Required

0 1
Si -1 -1.59481901 -0.00000000  0.00000000
Si -1  1.59481901  0.00000000  0.00000000
H  0  2.10680551 -1.39020122  0.00000000
H  0 -2.10670776 -0.69501893  1.20404702
H  0  2.10690278  0.69518935 -1.20386028
H  0  2.10671476  0.69504821  1.20402854
H  0 -2.10681151  1.39019933 -0.00011906
H  0 -2.10690779 -0.69521870 -1.20384206

