%chk=opt.chk
%mem=24GB
%nprocshared=28
#p opt UM062X/6-311+G** nosymm int=superfine SCF=(Tight,MaxCycle=200)

Title Card Required

1 2
C -1  -1.02723671  0.00000000  0.00000000
C -1   1.02723671  0.00000000 -0.00000000
C 0   0.00000762 -2.15641600  0.00035500
C 0   0.00001440 -3.53176600  0.00057200
C 0  -0.95770588 -4.32427500  0.27970800
C 0  -1.02642099 -1.48110800  0.26120100
C 0   0.55750024 -5.72058700 -0.16372700
H 0   1.07505995 -6.59818100 -0.31972100
C 0  -1.24681129  0.83924400  1.16049800
C 0  -0.55769760 -5.72054000  0.16439000
H 0  -1.07534118 -6.59809200  0.32024000
C 0   0.95764151 -4.32435700 -0.27879900
C 0   1.02639896 -1.48115600 -0.26092300
C 0   1.41570042  2.25440400 -1.16868900
C 0  -1.24622344  0.30603300 -1.40736600
C 0  -1.59918268  2.91080500  2.39776700
H 0  -1.73444358  3.98261000  2.37971100
C 0  -1.95046221 -3.66420300  0.57630300
H 0  -2.72564725 -4.19797000  0.80625700
C 0  -1.31596264  1.60942100 -1.98926600
C 0   1.97456696 -2.23542700 -0.55533500
H 0   2.77459454 -1.73401000 -0.73946300
C 0   1.24638184  0.30612000  1.40730900
C 0   1.31600329  1.60950600  1.98921100
C 0   1.95032838 -3.66436000 -0.57587200
H 0   2.72543209 -4.19817900 -0.80608800
C 0  -1.41628998  2.25426600  1.16871200
C 0  -1.24001873  0.19487900  2.42776200
H 0  -1.08406842 -0.86727000  2.47572600
C 0   1.35999360 -0.78817100  2.31078900
H 0   1.34381393 -1.80013300  1.93766400
C 0  -1.61178946  2.24305700  3.60206400
H 0  -1.75934287  2.78230300  4.52521400
C 0  -1.97466099 -2.23527500  0.55555000
H 0  -2.77470889 -1.73379100  0.73935900
C 0  -1.43869468  1.73853600 -3.38703700
H 0  -1.47302513  2.73906600 -3.80157800
C 0   1.24675454  0.83928600 -1.16052200
C 0  -1.37727699  3.13328800  0.02989000
H 0  -1.41862024  4.18685100  0.28738700
C 0  -1.54062296  0.65295200 -4.22298900
H 0  -1.65095492  0.79238800 -5.28919700
C 0  -1.30901506  2.86449500 -1.28690100
H 0  -1.29844546  3.73278800 -1.93870900
C 0   1.43931727  1.73861300  3.38691600
H 0   1.47361299  2.73914300  3.80146400
C 0  -1.42017798  0.86412900  3.61171400
H 0  -1.40453788  0.31624300  4.54594900
C 0  -1.35943369 -0.78825600 -2.31093200
H 0  -1.34326673 -1.80022700 -1.93784700
C 0   1.54176649  0.65303000  4.22277600
H 0   1.65253214  0.79245400  5.28892300
C 0   1.59856179  2.91106900 -2.39767900
H 0   1.73337544  3.98295200 -2.37956000
C 0   1.51543567 -0.62738900  3.66585200
H 0   1.61448480 -1.50257400  4.29316200
C 0   1.61166325  2.24335300 -3.60198400
H 0   1.75922259  2.78267900 -4.52508500
C 0   1.37600894  3.13343700 -0.02990000
H 0   1.41652546  4.18703300 -0.28744400
C 0  -1.51441073 -0.62746600 -3.66607200
H 0  -1.61315576 -1.50265200 -4.29345000
C 0   1.30814428  2.86460000  1.28690700
H 0   1.29708000  3.73287300  1.93872900
C 0   1.24026014  0.19499300 -2.42782300
H 0   1.08449619 -0.86718000 -2.47590300
C 0   1.42045158  0.86435600 -3.61171000
H 0   1.40511896  0.31649400 -4.54596700

