%oldchk=force.chk
%chk=nbo.chk
#p UM062X/6-311+G** Pop=NBO Read

NBO Analysis

0 1
C -0.93126351  0.00000000 -0.00000000
P  0.93126351 -0.00000000  0.00000000
H  1.11134654 -1.40533770  0.00000000
H -1.28140330  1.01301405  0.20044326
H  1.11134689  0.10933615  1.40107976
H -1.28140577 -0.27856504 -0.99437200
H -1.36671131 -0.67759055  0.73246668

$NBO
ARCHIVE FILE=ethane_nbo.47
$END


