%chk=opt.chk
%mem=24GB
%nprocshared=28
#p opt UM062X/6-311+G** nosymm int=superfine 

Title Card Required

1 2
C -1  -1.79755983  0.00000000  0.00000000
C -1   1.79755983  0.00000000 -0.00000000
C 0  -0.00000986 -2.05545100 -0.00218400
C 0  -0.00001972 -3.45663400 -0.00371000
C 0  -1.24126435 -4.28964700  0.19341900
C 0  -1.44879292 -1.46623300  0.16419700
C 0   0.72814523 -5.68273300 -0.12500700
H 0   1.42118906 -6.55103000 -0.24207000
C 0  -1.81992099  0.76445700  1.22074200
C 0  -0.72822083 -5.68298300  0.11278600
H 0  -1.42125151 -6.55152100  0.22810600
C 0   1.24120957 -4.28923100 -0.20263200
C 0   1.44877101 -1.46588400 -0.16727800
C 0   1.95648417  2.19168900 -1.33769900
C 0  -1.92108803  0.40953900 -1.37420600
C 0  -2.01764129  2.76908500  2.62285300
H 0  -2.14023162  3.84514500  2.68868800
C 0  -2.57234150 -3.70308600  0.41334100
H 0  -3.56064057 -4.27951100  0.58257000
C 0  -1.91259125  1.75683100 -1.86867700
C 0   2.64176421 -2.28649400 -0.38846300
H 0   3.70419511 -1.81328700 -0.50709000
C 0   1.92112310  0.40665600  1.37505900
C 0   1.91263179  1.75290300  1.87236300
C 0   2.57232616 -3.70220600 -0.42113800
H 0   3.56063510 -4.27827200 -0.59153800
C 0  -1.95672303  2.18886500  1.34229400
C 0  -1.66121358  0.04225000  2.44254900
H 0  -1.50606266 -1.02702500  2.40771200
C 0   1.99869965 -0.62790300  2.36195200
H 0   2.03710664 -1.65906400  2.04521500
C 0  -1.91883099  2.02407800  3.78017400
H 0  -1.98001550  2.50708000  4.74815100
C 0  -2.64177078 -2.28730400  0.38372300
H 0  -3.70418963 -1.81434400  0.50342700
C 0  -1.93646770  1.98025300 -3.26008800
H 0  -1.91006030  3.00602900 -3.60919500
C 0   1.81987936  0.76701800 -1.21914100
C 0  -1.95885517  3.13594400  0.25924100
H 0  -1.98895492  4.17143300  0.58431100
C 0  -2.01149687  0.95518900 -4.17545700
H 0  -2.04765339  1.17003200 -5.23669600
C 0  -1.90442317  2.95542500 -1.07578900
H 0  -1.88600963  3.86784300 -1.66423700
C 0   1.93672847  1.97339900  3.26423800
H 0   1.91035722  2.99843800  3.61550800
C 0  -1.71646294  0.64359400  3.67979400
H 0  -1.60046624  0.03773200  4.57151700
C 0  -1.99858461 -0.62294000 -2.36327900
H 0  -2.03705843 -1.65476100 -2.04870200
C 0   2.01190883  0.94641300  4.17744200
H 0   2.04825271  1.15903100  5.23912300
C 0   2.01740463  2.77460400 -2.61703400
H 0   2.13983718  3.85081600 -2.68059700
C 0   2.06164597 -0.37237300  3.71002300
H 0   2.14491882 -1.19837700  4.40661800
C 0   1.91880031  2.03201600 -3.77592100
H 0   1.98001002  2.51705500 -4.74287700
C 0   1.95836650  3.13649300 -0.25265600
H 0   1.98814633  4.17267000 -0.57555100
C 0  -2.06135343 -0.36457400 -3.71081600
H 0  -2.14459450 -1.18910900 -4.40915300
C 0   1.90411090  2.95316000  1.08199600
H 0   1.88553631  3.86433700  1.67236000
C 0   1.66129357  0.04736400 -2.44246500
H 0   1.50623687 -1.02199400 -2.40988200
C 0   1.71657360  0.65130400 -3.67844300
H 0   1.60070181  0.04729700 -4.57143800

