%oldchk=force.chk
%chk=nbo.chk
#p UM062X/6-311+G** Pop=NBO Read

NBO Analysis

0 1
B -0.87060700 -0.00000000  0.00000000
B  0.87060700  0.00000000 -0.00000000
H -1.49858405 -1.01313617 -0.00000000
H  1.49858405  1.01312256 -0.00521898
H -1.49858696  1.01313284 -0.00000499
H  1.49858696 -1.01311926  0.00521398

$NBO
ARCHIVE FILE=ethane_nbo.47
$END


