%chk=force.chk 
%mem=4GB
%nprocshared=8
#p UM062X/6-311+G** force int=superfine  pop=saveNBO 

Title Card Required

0 1
P -1.11721652 -0.00000000  0.00000000
P  1.11721652  0.00000000  0.00000000
H  1.23405294 -1.40926420  0.00000000
H -1.23406894  1.39816272 -0.17652327
H  1.35726494  0.11793735 -1.38980210
H -1.35726503 -0.29110265 -1.36408209

