%chk=opt.chk
%mem=16GB
%nprocshared=24
#p opt UM062X/6-311+G** nosymm int=superfine SCF=NoVarAcc SCF=tight

Title Card Required

1 2
C -1 -1.60102700  0.00000000  0.00000000
C -1  1.60102700  0.00000000  0.00000000
H 0 -2.03441100 -0.99487600 -0.00000000
H 0 -2.03430000  0.99481200 -0.00000000
H 0  2.03441100  0.99487600  0.00000000
H 0  2.03430000 -0.99481200  0.00000000

