%oldchk=force.chk
%chk=nbo.chk
#p UM062X/6-311+G** Pop=NBO Read

NBO Analysis

-1 2
B -0.82227400  0.00000000  0.00000000
B  0.82227400  0.00000000  0.00000000
H -1.49284376 -1.01583528  0.00000000
H  1.49284376  1.01583534 -0.00047700
H -1.49284625  1.01583374 -0.00000500
H  1.49284625 -1.01583380  0.00047200

$NBO
ARCHIVE FILE=ethane_nbo.47
$END


