%chk=opt.chk
%mem=4GB
%nprocshared=8
#p opt UM062X/6-311+G** nosymm int=superfine

Title Card Required

0 1
C -1.426672 0.000000 -0.000000
P 1.426672 -0.000000 -0.000000
H   1.485743   0.88323283  0.00062000
H   -1.484249   -0.937931   -0.540431
H   1.485130   -0.88323283  0.00062000
H   -1.485681   0.936911   -0.542078
H   -1.485026   0.000919   1.082457

