%chk=opt.chk
%mem=24GB
%nprocshared=64
#p opt UM062X/6-311+G** nosymm int=superfine

Title Card Required

1 2
C -1  -1.26972541  0.00000000 -0.00000000
C -1   1.26972541  0.00000000  0.00000000
C 0  -0.00000794 -2.10939150  0.00000000
C 0  -0.00003774 -3.49739450 -0.00002923
C 0  -1.00835279 -4.30978824  0.23683941
C 0  -1.12752535 -1.47743341  0.21180861
C 0   0.58919814 -5.70448148 -0.14037520
H 0   1.14275255 -6.57770083 -0.27590245
C 0  -1.38451564  0.79909228  1.19497871
C 0  -0.58930413 -5.70445753  0.14058092
H 0  -1.14287809 -6.57765518  0.27615289
C 0   1.00826935 -4.30982477 -0.23673149
C 0   1.12753024 -1.47746159 -0.21171188
C 0   1.53310182  2.22015782 -1.26414711
C 0  -1.41243845  0.36304969 -1.38863642
C 0  -1.66527360  2.83477859  2.52156339
H 0  -1.79128782  3.90897484  2.54870898
C 0  -2.07163165 -3.68593494  0.49420130
H 0  -2.88136984 -4.24085414  0.69215352
C 0  -1.43793054  1.69172550 -1.92531445
C 0   2.11214547 -2.26363507 -0.46776802
H 0   2.96392669 -1.77391050 -0.61586487
C 0   1.41240973  0.36320231  1.38856797
C 0   1.43777360  1.69192550  1.92515097
C 0   2.07161641 -3.68600507 -0.49384898
H 0   2.88137414 -4.24095586 -0.69161423
C 0  -1.53349799  2.22017516  1.26398248
C 0  -1.31659589  0.11335766  2.44139402
H 0  -1.16593285 -0.95247618  2.44459888
C 0   1.50223851 -0.69940635  2.34047366
H 0   1.51556546 -1.72224140  1.99670883
C 0  -1.63677380  2.12465651  3.70314913
H 0  -1.74899147  2.63347160  4.65105868
C 0  -2.11212553 -2.26355193  0.46808304
H 0  -2.96387189 -1.77379450  0.61631016
C 0  -1.50325314  1.87110722 -3.32211454
H 0  -1.50428524  2.88568909 -3.70323753
C 0   1.38445727  0.79902971 -1.19505569
C 0  -1.50769606  3.13669941  0.15424373
H 0  -1.54632018  4.18083977  0.44851673
C 0  -1.58940034  0.81743900 -4.20129371
H 0  -1.65769799  0.99791802 -5.26660776
C 0  -1.43870616  2.91654451 -1.17256652
H 0  -1.42171362  3.80967096 -1.78986703
C 0   1.50339586  1.87140379  3.32191113
H 0   1.50433514  2.88600091  3.70298763
C 0  -1.44388202  0.74609370  3.65570968
H 0  -1.38912063  0.16759911  4.56943471
C 0  -1.50214568 -0.69962065 -2.34049884
H 0  -1.51557255 -1.72243661 -1.99668506
C 0   1.58984482  0.81779202  4.20113081
H 0   1.65842700  0.99835301  5.26640679
C 0   1.66501387  2.83471440 -2.52173664
H 0   1.79082632  3.90893814 -2.54891016
C 0   1.60426148 -0.48541917  3.69307679
H 0   1.69185103 -1.33313772  4.36004668
C 0   1.63686734  2.12450650 -3.70328028
H 0   1.74917360  2.63327641 -4.65120146
C 0   1.50682717  3.13677656 -0.15449784
H 0   1.54495479  4.18090918 -0.44887282
C 0  -1.60391653 -0.48573282 -3.69314018
H 0  -1.69137388 -1.33350526 -4.36006394
C 0   1.43797040  2.91669446  1.17232838
H 0   1.42055242  3.80985499  1.78956641
C 0   1.31689372  0.11321235 -2.44144785
H 0   1.16649291 -0.95266380 -2.44465558
C 0   1.44423397  0.74590932 -3.65577389
H 0   1.38970583  0.16732892 -4.56946386

