%chk=opt.chk
%mem=24GB
%nprocshared=28
#p opt UM062X/6-311+G** nosymm int=superfine 

Title Card Required

1 2
C -1  -1.95447888  0.00000000 -0.00000000
C -1   1.95447888  0.00000000 -0.00000000
C 0  -0.00015070 -1.98856500 -0.00626500
C 0   0.00001475 -3.39883100 -0.01071700
C 0  -1.17979974 -4.24606900  0.22573300
C 0  -1.42224864 -1.42477300  0.18087700
C 0   0.69404622 -5.63715200 -0.16281300
H 0   1.35965861 -6.50179000 -0.30831200
C 0  -1.97272096  0.78920500  1.20146600
C 0  -0.69363416 -5.63816300  0.12703300
H 0  -1.35913168 -6.50380800  0.26692800
C 0   1.17996730 -4.24438900 -0.25267800
C 0   1.42185345 -1.42348500 -0.19007300
C 0   2.48115325  2.14234500 -1.32746000
C 0  -2.22553022  0.35445900 -1.36980700
C 0  -2.44220837  2.75022300  2.60467900
H 0  -2.84568602  3.76040100  2.68886500
C 0  -2.45686105 -3.68227900  0.49339100
H 0  -3.39080691 -4.27011000  0.70123600
C 0  -2.66431172  1.63923000 -1.85430600
C 0   2.53955741 -2.26839800 -0.46237000
H 0   3.56736724 -1.81229400 -0.59929500
C 0   2.22555341  0.34580200  1.37186900
C 0   2.66559530  1.62727300  1.86419900
C 0   2.45687580 -3.67874100 -0.51698800
H 0   3.39088911 -4.26508000 -0.72872400
C 0  -2.47738681  2.13502500  1.34065100
C 0  -1.42880672  0.17930900  2.38518300
H 0  -1.03855590 -0.83322500  2.33620100
C 0   2.00603515 -0.66985100  2.35708400
H 0   1.72879773 -1.66852200  2.04270600
C 0  -1.90642034  2.12232200  3.72278700
H 0  -1.89490602  2.63208100  4.67823000
C 0  -2.53979242 -2.27164700  0.44763000
H 0  -3.56768128 -1.81652600  0.58725300
C 0  -2.77822722  1.84911600 -3.24158500
H 0  -3.10182859  2.83007500 -3.58446800
C 0   1.97324051  0.79678700 -1.19631800
C 0  -3.01458699  2.96691100  0.28298800
H 0  -3.39826182  3.93177600  0.62145700
C 0  -2.51718636  0.85593900 -4.16481800
H 0  -2.62648075  1.05634400 -5.22425100
C 0  -3.06497348  2.77043900 -1.04890800
H 0  -3.47702944  3.60329000 -1.62464100
C 0   2.77838635  1.82886600  3.25283500
H 0   3.10274965  2.80743600  3.60182900
C 0  -1.38524072  0.82120100  3.60110800
H 0  -0.95444317  0.30660300  4.46211700
C 0  -2.00757798 -0.65537200 -2.36124400
H 0  -1.73099184 -1.65615300 -2.05310600
C 0   2.51540325  0.83046500  4.16983900
H 0   2.62381135  1.02450400  5.23054200
C 0   2.44683581  2.76528700 -2.58776500
H 0   2.85305767  3.77493500 -2.66614300
C 0   2.14681951 -0.44137400  3.70613100
H 0   1.97423323 -1.25390600  4.40380800
C 0   1.90818342  2.14556700 -3.70912400
H 0   1.89715808  2.66123700 -4.66140000
C 0   3.02054965  2.96658800 -0.26502200
H 0   3.40696553  3.93248100 -0.59768800
C 0  -2.14923492 -0.41881300 -3.70888900
H 0  -1.97792169 -1.22739400 -4.41143000
C 0   3.06928582  2.76231300  1.06583900
H 0   3.48272126  3.59095800  1.64672700
C 0   1.42653674  0.19544800 -2.38328500
H 0   1.03365446 -0.81642800 -2.34013300
C 0   1.38326898  0.84503700 -3.59505800
H 0   0.94983681  0.33701200 -4.45876200

