%chk=opt.chk
%mem=8GB
%nprocshared=24
#p UM062X/6-311+G** force int=superfine 

Title Card Required

0 1
C   -0.458128   0.000000   0.000000
C   0.458175   0.000000   0.000000
H   1.024101   -0.841381   0.486865
H   -1.024033   -0.842390   -0.485203
H   1.024079   0.842391   0.485198
H   1.024085   -0.000901   -0.972131
H   -1.024054   0.841378   -0.486871
H   -1.024038   0.000898   0.972129

