%chk=opt.chk
%mem=8GB
%nprocshared=24
#p UM062X/6-311+G** force int=superfine 

Title Card Required

0 1
C   -0.465764   0.000000   0.000000
C   0.465811   0.000000   0.000000
H   1.025595   -0.842655   0.487602
H   -1.025527   -0.843661   -0.485938
H   1.025575   0.843663   0.485933
H   1.025582   -0.000904   -0.973598
H   -1.025547   0.842652   -0.487608
H   -1.025534   0.000901   0.973596

