%chk=opt.chk
%mem=8GB
%nprocshared=24
#p UM062X/6-311+G** force int=superfine 

Title Card Required

0 1
C   -0.473399   0.000000   0.000000
C   0.473448   0.000000   0.000000
H   1.027271   -0.843896   0.488320
H   -1.027203   -0.844900   -0.486654
H   1.027252   0.844901   0.486649
H   1.027260   -0.000908   -0.975028
H   -1.027223   0.843893   -0.488325
H   -1.027211   0.000905   0.975026

