%chk=opt.chk
%mem=8GB
%nprocshared=24
#p UM062X/6-311+G** force int=superfine 

Title Card Required

0 1
C   -0.503941   0.000000   0.000000
C   0.503993   0.000000   0.000000
H   1.035637   -0.848592   0.491034
H   -1.035572   -0.849587   -0.489361
H   1.035624   0.849589   0.489357
H   1.035626   -0.000922   -0.980442
H   -1.035585   0.848590   -0.491039
H   -1.035575   0.000920   0.980440

