%chk=opt.chk
%mem=8GB
%nprocshared=24
#p UM062X/6-311+G** force int=superfine 

Title Card Required

0 1
C   -0.511576   0.000000   0.000000
C   0.511629   0.000000   0.000000
H   1.038261   -0.849071   0.491313
H   -1.038174   -0.850098   -0.489628
H   1.038230   0.850099   0.489619
H   1.038233   -0.000898   -0.981016
H   -1.038208   0.849066   -0.491323
H   -1.038184   0.000893   0.981012

