%chk=opt.chk
%mem=8GB
%nprocshared=24
#p UM062X/6-311+G** force int=superfine 

Title Card Required

0 1
C   -0.526847   0.000000   0.000000
C   0.526901   0.000000   0.000000
H   1.043038   -0.851579   0.492762
H   -1.042952   -0.852602   -0.491073
H   1.043009   0.852604   0.491065
H   1.043002   -0.000904   -0.983913
H   -1.042984   0.851574   -0.492772
H   -1.042952   0.000899   0.983910

