%chk=opt.chk
%mem=8GB
%nprocshared=24
#p UM062X/6-311+G** force int=superfine 

Title Card Required

0 1
C   -0.534483   0.000000   0.000000
C   0.534538   0.000000   0.000000
H   1.045813   -0.852683   0.493401
H   -1.045728   -0.853704   -0.491710
H   1.045785   0.853706   0.491702
H   1.045774   -0.000907   -0.985187
H   -1.045758   0.852678   -0.493410
H   -1.045722   0.000903   0.985184

