%chk=opt.chk
%mem=8GB
%nprocshared=24
#p UM062X/6-311+G** force int=superfine 

Title Card Required

0 1
C   -0.542118   0.000000   0.000000
C   0.542174   0.000000   0.000000
H   1.048806   -0.853689   0.493983
H   -1.048720   -0.854709   -0.492292
H   1.048778   0.854711   0.492283
H   1.048764   -0.000910   -0.986348
H   -1.048750   0.853684   -0.493993
H   -1.048712   0.000906   0.986345

