%chk=opt.chk
%mem=8GB
%nprocshared=24
#p UM062X/6-311+G** force int=superfine 

Title Card Required

0 1
C   -0.549754   0.000000   0.000000
C   0.549810   0.000000   0.000000
H   1.051727   -0.855034   0.494751
H   -1.051665   -0.856025   -0.493069
H   1.051721   0.856026   0.493066
H   1.051738   -0.000939   -0.987871
H   -1.051671   0.855033   -0.494754
H   -1.051682   0.000937   0.987870

