%chk=opt.chk
%mem=8GB
%nprocshared=24
#p UM062X/6-311+G** force int=superfine 

Title Card Required

0 1
C   -0.557389   0.000000   0.000000
C   0.557446   0.000000   0.000000
H   1.054878   -0.856021   0.495324
H   -1.054816   -0.857011   -0.493641
H   1.054873   0.857011   0.493638
H   1.054889   -0.000942   -0.989010
H   -1.054821   0.856019   -0.495327
H   -1.054833   0.000940   0.989009

