%chk=opt.chk
%mem=8GB
%nprocshared=24
#p UM062X/6-311+G** force int=superfine 

Title Card Required

0 1
C   -0.580296   0.000000   0.000000
C   0.580355   0.000000   0.000000
H   1.064768   -0.858966   0.497039
H   -1.064706   -0.859954   -0.495352
H   1.064766   0.859954   0.495349
H   1.064777   -0.000949   -0.992414
H   -1.064709   0.858965   -0.497042
H   -1.064718   0.000947   0.992413

