%chk=opt.chk
%mem=8GB
%nprocshared=24
#p UM062X/6-311+G** force int=superfine 

Title Card Required

0 1
C   -0.587931   0.000000   0.000000
C   0.587991   0.000000   0.000000
H   1.068201   -0.859940   0.497607
H   -1.068139   -0.860928   -0.495919
H   1.068200   0.860928   0.495916
H   1.068208   -0.000951   -0.993540
H   -1.068141   0.859939   -0.497609
H   -1.068149   0.000949   0.993539

