%chk=opt.chk
%mem=8GB
%nprocshared=24
#p UM062X/6-311+G** force int=superfine 

Title Card Required

0 1
C   -0.610838   0.000000   0.000000
C   0.610900   0.000000   0.000000
H   1.078865   -0.862834   0.499292
H   -1.078802   -0.863821   -0.497600
H   1.078865   0.863822   0.497597
H   1.078870   -0.000958   -0.996887
H   -1.078803   0.862833   -0.499294
H   -1.078808   0.000956   0.996886

