%chk=opt.chk
%mem=8GB
%nprocshared=24
#p UM062X/6-311+G** force int=superfine 

Title Card Required

0 1
C   -0.626109   0.000000   0.000000
C   0.626173   0.000000   0.000000
H   1.086247   -0.864737   0.500399
H   -1.086182   -0.865724   -0.498704
H   1.086247   0.865725   0.498701
H   1.086253   -0.000962   -0.999086
H   -1.086183   0.864736   -0.500400
H   -1.086190   0.000960   0.999085

