%chk=opt.chk
%mem=8GB
%nprocshared=24
#p UM062X/6-311+G** force int=superfine 

Title Card Required

0 1
C   -0.633744   0.000000   0.000000
C   0.633809   0.000000   0.000000
H   1.090950   -0.865262   0.500702
H   -1.090858   -0.866274   -0.499001
H   1.090925   0.866274   0.498996
H   1.090959   -0.000946   -0.999703
H   -1.090885   0.865259   -0.500707
H   -1.090897   0.000943   0.999700

