%chk=opt.chk
%mem=8GB
%nprocshared=24
#p UM062X/6-311+G** force int=superfine 

Title Card Required

0 1
C   -0.649015   0.000000   0.000000
C   0.649081   0.000000   0.000000
H   1.098099   -0.867315   0.501894
H   -1.098009   -0.868325   -0.500189
H   1.098077   0.868325   0.500184
H   1.098119   -0.000951   -1.002071
H   -1.098033   0.867313   -0.501899
H   -1.098055   0.000948   1.002068

