%chk=opt.chk
%mem=8GB
%nprocshared=24
#p UM062X/6-311+G** force int=superfine 

Title Card Required

0 1
C   -0.687192   0.000000   0.000000
C   0.687263   0.000000   0.000000
H   1.117504   -0.872076   0.504646
H   -1.117417   -0.873080   -0.502934
H   1.117489   0.873080   0.502931
H   1.117526   -0.000965   -1.007564
H   -1.117434   0.872074   -0.504649
H   -1.117458   0.000962   1.007563

