%chk=opt.chk
%mem=8GB
%nprocshared=24
#p UM062X/6-311+G** force int=superfine 

Title Card Required

0 1
C   -0.694828   0.000000   0.000000
C   0.694899   0.000000   0.000000
H   1.121531   -0.872986   0.505171
H   -1.121444   -0.873989   -0.503459
H   1.121516   0.873990   0.503455
H   1.121551   -0.000967   -1.008615
H   -1.121460   0.872985   -0.505174
H   -1.121482   0.000965   1.008614

