%chk=opt.chk
%mem=8GB
%nprocshared=24
#p UM062X/6-311+G** force int=superfine 

Title Card Required

0 1
C   -0.702463   0.000000   0.000000
C   0.702535   0.000000   0.000000
H   1.125587   -0.873889   0.505692
H   -1.125500   -0.874891   -0.503979
H   1.125573   0.874891   0.503975
H   1.125605   -0.000970   -1.009658
H   -1.125515   0.873888   -0.505695
H   -1.125534   0.000968   1.009657

