%chk=opt.chk
%mem=8GB
%nprocshared=24
#p UM062X/6-311+G** force int=superfine 

Title Card Required

0 1
C   -0.725370   0.000000   0.000000
C   0.725444   0.000000   0.000000
H   1.137901   -0.876555   0.507229
H   -1.137814   -0.877555   -0.505513
H   1.137889   0.877555   0.505510
H   1.137909   -0.000978   -1.012737
H   -1.137827   0.876554   -0.507231
H   -1.137836   0.000976   1.012736

