%chk=opt.chk
%mem=8GB
%nprocshared=24
#p UM062X/6-311+G** force int=superfine 

Title Card Required

0 1
C   -0.733005   0.000000   0.000000
C   0.733080   0.000000   0.000000
H   1.142048   -0.877432   0.507734
H   -1.141961   -0.878431   -0.506017
H   1.142037   0.878431   0.506015
H   1.142051   -0.000980   -1.013750
H   -1.141973   0.877431   -0.507735
H   -1.141977   0.000979   1.013749

