%chk=opt.chk
%mem=8GB
%nprocshared=24
#p UM062X/6-311+G** force int=superfine 

Title Card Required

0 1
C   -0.740641   0.000000   0.000000
C   0.740716   0.000000   0.000000
H   1.146212   -0.878302   0.508236
H   -1.146126   -0.879301   -0.506517
H   1.146202   0.879301   0.506516
H   1.146212   -0.000983   -1.014755
H   -1.146137   0.878302   -0.508237
H   -1.146137   0.000982   1.014755

