%chk=opt.chk
%mem=8GB
%nprocshared=24
#p UM062X/6-311+G** force int=superfine 

Title Card Required

0 1
C   -0.748276   0.000000   0.000000
C   0.748353   0.000000   0.000000
H   1.150393   -0.879167   0.508734
H   -1.150307   -0.880166   -0.507015
H   1.150384   0.880166   0.507013
H   1.150387   -0.000985   -1.015755
H   -1.150317   0.879167   -0.508735
H   -1.150312   0.000984   1.015754

