%chk=opt.chk
%mem=8GB
%nprocshared=24
#p UM062X/6-311+G** force int=superfine 

Title Card Required

0 1
C   -0.755912   0.000000   0.000000
C   0.755989   0.000000   0.000000
H   1.154580   -0.880029   0.509231
H   -1.154493   -0.881028   -0.507510
H   1.154571   0.881028   0.507509
H   1.154569   -0.000987   -1.016751
H   -1.154503   0.880029   -0.509232
H   -1.154492   0.000986   1.016750

