%chk=opt.chk
%mem=8GB
%nprocshared=24
#p UM062X/6-311+G** force int=superfine 

Title Card Required

0 1
C   -0.786453   0.000000   0.000000
C   0.786534   0.000000   0.000000
H   1.171478   -0.883423   0.511187
H   -1.171393   -0.884421   -0.509461
H   1.171474   0.884421   0.509460
H   1.171448   -0.000994   -1.020671
H   -1.171398   0.883423   -0.511187
H   -1.171368   0.000993   1.020671

