%chk=opt.chk
%mem=8GB
%nprocshared=24
#p UM062X/6-311+G** force int=superfine 

Title Card Required

0 1
C   -0.794089   0.000000   0.000000
C   0.794170   0.000000   0.000000
H   1.175722   -0.884260   0.511670
H   -1.175637   -0.885258   -0.509942
H   1.175719   0.885258   0.509942
H   1.175688   -0.000995   -1.021639
H   -1.175641   0.884260   -0.511670
H   -1.175608   0.000995   1.021638

