%chk=opt.chk
%mem=8GB
%nprocshared=24
#p UM062X/6-311+G** force int=superfine 

Title Card Required

0 1
C   -0.801724   0.000000   0.000000
C   0.801806   0.000000   0.000000
H   1.179973   -0.885093   0.512150
H   -1.179889   -0.886091   -0.510421
H   1.179972   0.886091   0.510420
H   1.179935   -0.000996   -1.022600
H   -1.179891   0.885093   -0.512151
H   -1.179854   0.000996   1.022600

