%chk=opt.chk
%mem=8GB
%nprocshared=24
#p UM062X/6-311+G** force int=superfine 

Title Card Required

0 1
C   -0.816995   0.000000   0.000000
C   0.817079   0.000000   0.000000
H   1.188496   -0.886740   0.513101
H   -1.188413   -0.887738   -0.511369
H   1.188497   0.887738   0.511368
H   1.188452   -0.000999   -1.024503
H   -1.188412   0.886740   -0.513102
H   -1.188370   0.000998   1.024503

