%chk=opt.chk
%mem=8GB
%nprocshared=24
#p UM062X/6-311+G** force int=superfine 

Title Card Required

0 1
C   -0.832266   0.000000   0.000000
C   0.832351   0.000000   0.000000
H   1.197049   -0.888358   0.514036
H   -1.196967   -0.889357   -0.512300
H   1.197053   0.889357   0.512299
H   1.197001   -0.001001   -1.026373
H   -1.196964   0.888358   -0.514036
H   -1.196917   0.001001   1.026372

