%chk=opt.chk
%mem=8GB
%nprocshared=24
#p UM062X/6-311+G** force int=superfine 

Title Card Required

0 1
C   -0.839902   0.000000   0.000000
C   0.839988   0.000000   0.000000
H   1.201340   -0.889154   0.514496
H   -1.201259   -0.890153   -0.512759
H   1.201345   0.890153   0.512758
H   1.201291   -0.001003   -1.027292
H   -1.201254   0.889154   -0.514496
H   -1.201206   0.001002   1.027291

