%chk=opt.chk
%mem=8GB
%nprocshared=24
#p UM062X/6-311+G** force int=superfine 

Title Card Required

0 1
C   -0.862808   0.000000   0.000000
C   0.862896   0.000000   0.000000
H   1.214298   -0.891470   0.515835
H   -1.214218   -0.892470   -0.514093
H   1.214308   0.892470   0.514091
H   1.214248   -0.001006   -1.029966
H   -1.214210   0.891470   -0.515835
H   -1.214162   0.001005   1.029966

