%chk=opt.chk
%mem=8GB
%nprocshared=24
#p UM062X/6-311+G** force int=superfine 

Title Card Required

0 1
C   -0.878079   0.000000   0.000000
C   0.878169   0.000000   0.000000
H   1.223043   -0.892937   0.516684
H   -1.222964   -0.893938   -0.514939
H   1.223055   0.893938   0.514937
H   1.222995   -0.001008   -1.031661
H   -1.222953   0.892937   -0.516684
H   -1.222907   0.001007   1.031660

