%chk=opt.chk
%mem=8GB
%nprocshared=24
#p UM062X/6-311+G** force int=superfine 

Title Card Required

0 1
C   -0.916256   0.000000   0.000000
C   0.916350   0.000000   0.000000
H   1.245692   -0.896128   0.518533
H   -1.245610   -0.897130   -0.516781
H   1.245706   0.897131   0.516780
H   1.245658   -0.001011   -1.035345
H   -1.245598   0.896128   -0.518533
H   -1.245567   0.001010   1.035345

