%chk=opt.chk
%mem=8GB
%nprocshared=24
#p UM062X/6-311+G** force int=superfine 

Title Card Required

0 1
C   -0.923892   0.000000   0.000000
C   0.923986   0.000000   0.000000
H   1.249352   -0.897431   0.519307
H   -1.249258   -0.898444   -0.517554
H   1.249353   0.898444   0.517554
H   1.249358   -0.001012   -1.036850
H   -1.249258   0.897431   -0.519307
H   -1.249265   0.001011   1.036850

