%chk=opt.chk
%mem=8GB
%nprocshared=24
#p UM062X/6-311+G** force int=superfine 

Title Card Required

0 1
C   -0.931527   0.000000   0.000000
C   0.931623   0.000000   0.000000
H   1.253751   -0.898156   0.519728
H   -1.253657   -0.899170   -0.517974
H   1.253753   0.899170   0.517973
H   1.253763   -0.001012   -1.037687
H   -1.253656   0.898157   -0.519728
H   -1.253669   0.001012   1.037686

