%chk=opt.chk
%mem=8GB
%nprocshared=24
#p UM062X/6-311+G** force int=superfine 

Title Card Required

0 1
C   -0.939163   0.000000   0.000000
C   0.939259   0.000000   0.000000
H   1.258157   -0.898876   0.520146
H   -1.258061   -0.899890   -0.518391
H   1.258158   0.899890   0.518390
H   1.258174   -0.001013   -1.038517
H   -1.258060   0.898876   -0.520146
H   -1.258079   0.001013   1.038516

