%chk=opt.chk
%mem=8GB
%nprocshared=24
#p UM062X/6-311+G** force int=superfine 

Title Card Required

0 1
C   -0.946798   0.000000   0.000000
C   0.946895   0.000000   0.000000
H   1.262568   -0.899590   0.520561
H   -1.262473   -0.900605   -0.518805
H   1.262570   0.900605   0.518804
H   1.262591   -0.001014   -1.039341
H   -1.262471   0.899590   -0.520560
H   -1.262496   0.001014   1.039340

