%chk=opt.chk
%mem=8GB
%nprocshared=24
#p UM062X/6-311+G** force int=superfine 

Title Card Required

0 1
C   -0.954434   0.000000   0.000000
C   0.954531   0.000000   0.000000
H   1.266987   -0.900298   0.520972
H   -1.266890   -0.901314   -0.519215
H   1.266989   0.901314   0.519214
H   1.267015   -0.001015   -1.040158
H   -1.266889   0.900298   -0.520972
H   -1.266919   0.001015   1.040157

