%chk=opt.chk
%mem=8GB
%nprocshared=24
#p UM062X/6-311+G** force int=superfine 

Title Card Required

0 1
C   -0.969705   0.000000   0.000000
C   0.969804   0.000000   0.000000
H   1.275825   -0.901721   0.521800
H   -1.275728   -0.902740   -0.520041
H   1.275828   0.902739   0.520039
H   1.275866   -0.001017   -1.041801
H   -1.275726   0.901722   -0.521800
H   -1.275768   0.001016   1.041800

