%chk=opt.chk
%mem=8GB
%nprocshared=24
#p UM062X/6-311+G** force int=superfine 

Title Card Required

0 1
C   -0.984976   0.000000   0.000000
C   0.985076   0.000000   0.000000
H   1.284699   -0.903108   0.522606
H   -1.284600   -0.904128   -0.520845
H   1.284702   0.904127   0.520843
H   1.284751   -0.001019   -1.043402
H   -1.284598   0.903108   -0.522606
H   -1.284652   0.001018   1.043400

