%chk=opt.chk
%mem=8GB
%nprocshared=24
#p UM062X/6-311+G** force int=superfine 

Title Card Required

0 1
C   -0.992611   0.000000   0.000000
C   0.992713   0.000000   0.000000
H   1.289148   -0.903792   0.523004
H   -1.289048   -0.904813   -0.521241
H   1.289151   0.904812   0.521240
H   1.289204   -0.001020   -1.044191
H   -1.289046   0.903792   -0.523004
H   -1.289105   0.001019   1.044190

