%chk=opt.chk
%mem=8GB
%nprocshared=24
#p UM062X/6-311+G** force int=superfine 

Title Card Required

0 1
C   -1.015518   0.000000   0.000000
C   1.015621   0.000000   0.000000
H   1.302554   -0.905801   0.524172
H   -1.302452   -0.906826   -0.522405
H   1.302558   0.906824   0.522404
H   1.302622   -0.001022   -1.046513
H   -1.302450   0.905802   -0.524171
H   -1.302520   0.001021   1.046511

