%chk=opt.chk
%mem=8GB
%nprocshared=24
#p UM062X/6-311+G** force int=superfine 

Title Card Required

0 1
C   -1.030788   0.000000   0.000000
C   1.030894   0.000000   0.000000
H   1.311560   -0.907099   0.524924
H   -1.311457   -0.908126   -0.523156
H   1.311564   0.908124   0.523154
H   1.311632   -0.001024   -1.048014
H   -1.311455   0.907100   -0.524924
H   -1.311529   0.001023   1.048012

