%chk=opt.chk
%mem=8GB
%nprocshared=24
#p UM062X/6-311+G** force int=superfine 

Title Card Required

0 1
C   -1.053695   0.000000   0.000000
C   1.053802   0.000000   0.000000
H   1.326010   -0.908206   0.525549
H   -1.325900   -0.909229   -0.523775
H   1.326010   0.909230   0.523774
H   1.326057   -0.001024   -1.049288
H   -1.325901   0.908206   -0.525549
H   -1.325951   0.001023   1.049288

