%chk=opt.chk
%mem=8GB
%nprocshared=24
#p UM062X/6-311+G** force int=superfine 

Title Card Required

0 1
C   -1.076601   0.000000   0.000000
C   1.076711   0.000000   0.000000
H   1.339337   -0.909905   0.526520
H   -1.339218   -0.910932   -0.524741
H   1.339332   0.910933   0.524739
H   1.339351   -0.001023   -1.051252
H   -1.339226   0.909905   -0.526521
H   -1.339246   0.001021   1.051252

