%chk=opt.chk
%mem=8GB
%nprocshared=24
#p UM062X/6-311+G** force int=superfine 

Title Card Required

0 1
C   -1.084237   0.000000   0.000000
C   1.084348   0.000000   0.000000
H   1.343844   -0.910443   0.526831
H   -1.343724   -0.911471   -0.525050
H   1.343839   0.911472   0.525049
H   1.343856   -0.001023   -1.051874
H   -1.343733   0.910443   -0.526832
H   -1.343750   0.001022   1.051874

