%chk=opt.chk
%mem=8GB
%nprocshared=24
#p UM062X/6-311+G** force int=superfine 

Title Card Required

0 1
C   -1.091872   0.000000   0.000000
C   1.091984   0.000000   0.000000
H   1.349392   -0.910937   0.527116
H   -1.349276   -0.911967   -0.525337
H   1.349390   0.911967   0.525335
H   1.349405   -0.001026   -1.052449
H   -1.349280   0.910937   -0.527116
H   -1.349296   0.001025   1.052448

