%chk=opt.chk
%mem=8GB
%nprocshared=24
#p UM062X/6-311+G** force int=superfine 

Title Card Required

0 1
C   -1.099508   0.000000   0.000000
C   1.099620   0.000000   0.000000
H   1.354098   -0.911457   0.527416
H   -1.353980   -0.912487   -0.525636
H   1.354095   0.912487   0.525634
H   1.354107   -0.001027   -1.053050
H   -1.353985   0.911457   -0.527416
H   -1.353997   0.001026   1.053049

