%chk=opt.chk
%mem=8GB
%nprocshared=24
#p UM062X/6-311+G** force int=superfine 

Title Card Required

0 1
C   -1.114779   0.000000   0.000000
C   1.114892   0.000000   0.000000
H   1.363559   -0.912472   0.528002
H   -1.363439   -0.913504   -0.526220
H   1.363555   0.913504   0.526218
H   1.363560   -0.001028   -1.054224
H   -1.363445   0.912472   -0.528002
H   -1.363450   0.001027   1.054223

