%chk=opt.chk
%mem=8GB
%nprocshared=24
#p UM062X/6-311+G** force int=superfine 

Title Card Required

0 1
C   -1.122414   0.000000   0.000000
C   1.122529   0.000000   0.000000
H   1.368315   -0.912968   0.528288
H   -1.368194   -0.914000   -0.526505
H   1.368311   0.914000   0.526504
H   1.368313   -0.001028   -1.054798
H   -1.368200   0.912968   -0.528289
H   -1.368202   0.001027   1.054796

