%chk=opt.chk
%mem=8GB
%nprocshared=24
#p UM062X/6-311+G** force int=superfine 

Title Card Required

0 1
C   -1.137685   0.000000   0.000000
C   1.137801   0.000000   0.000000
H   1.377860   -0.913951   0.528857
H   -1.377736   -0.914985   -0.527072
H   1.377855   0.914985   0.527070
H   1.377851   -0.001029   -1.055936
H   -1.377743   0.913951   -0.528857
H   -1.377738   0.001028   1.055935

