%chk=opt.chk
%mem=8GB
%nprocshared=24
#p UM062X/6-311+G** force int=superfine 

Title Card Required

0 1
C   -1.160591   0.000000   0.000000
C   1.160710   0.000000   0.000000
H   1.392350   -0.915377   0.529681
H   -1.392223   -0.916413   -0.527894
H   1.392345   0.916413   0.527892
H   1.392333   -0.001031   -1.057586
H   -1.392231   0.915377   -0.529681
H   -1.392218   0.001030   1.057585

