%chk=opt.chk
%mem=8GB
%nprocshared=24
#p UM062X/6-311+G** force int=superfine 

Title Card Required

0 1
C   -1.221675   0.000000   0.000000
C   1.221800   0.000000   0.000000
H   1.431520   -0.918171   0.531301
H   -1.431368   -0.919210   -0.529507
H   1.431498   0.919211   0.529505
H   1.431514   -0.001031   -1.060801
H   -1.431395   0.918170   -0.531302
H   -1.431396   0.001030   1.060801

