%chk=opt.chk
%mem=4GB
%nprocshared=8
#p opt UM062X/6-311+G** nosymm int=superfine

Title Card Required

0 1
C -1 -1.35626351  0.00000000 -0.00000000
P -1  1.35626351 -0.00000000  0.00000000
H  0  1.53634654 -1.40533770  0.00000000
H  0 -1.70640330  1.01301405  0.20044326
H  0  1.53634689  0.10933615  1.40107976
H  0 -1.70640577 -0.27856504 -0.99437200
H  0 -1.79171131 -0.67759055  0.73246668

