%chk=opt.chk
%mem=8GB
%nprocshared=24
#p opt UM062X/6-311+G** nosymm int=superfine 

Title Card Required

0 1
C -1 -12.271675    0.000000    0.000000
C -1  12.271800    0.000000    0.000000
H 0   12.272841   -0.933684    0.540285
H 0  -12.272701   -0.934737   -0.538461
H 0   12.272831    0.934738    0.538461
H 0   12.272618   -0.001052   -1.078736
H 0  -12.272716    0.933685   -0.540284
H 0  -12.272499    0.001052    1.078736

