%chk=opt.chk
%mem=24GB
%nprocshared=28
#p opt UM062X/6-311+G** nosymm int=superfine 

Title Card Required

1 2
C -1  -1.74049443  0.00000000  0.00000000
C -1   1.74049443  0.00000000 -0.00000000
C 0  -0.00000955 -2.05545100 -0.00218400
C 0  -0.00001910 -3.45663400 -0.00371000
C 0  -1.20185913 -4.28964700  0.19341900
C 0  -1.40279950 -1.46623300  0.16419700
C 0   0.70502951 -5.68273300 -0.12500700
H 0   1.37607195 -6.55103000 -0.24207000
C 0  -1.76214572  0.76445700  1.22074200
C 0  -0.70510271 -5.68298300  0.11278600
H 0  -1.37613242 -6.55152100  0.22810600
C 0   1.20180609 -4.28923100 -0.20263200
C 0   1.40277828 -1.46588400 -0.16727800
C 0   1.89437357  2.19168900 -1.33769900
C 0  -1.86010111  0.40953900 -1.37420600
C 0  -1.95358918  2.76908500  2.62285300
H 0  -2.07228776  3.84514500  2.68868800
C 0  -2.49067986 -3.70308600  0.41334100
H 0  -3.44760437 -4.27951100  0.58257000
C 0  -1.85187407  1.75683100 -1.86867700
C 0   2.55789868 -2.28649400 -0.38846300
H 0   3.58660162 -1.81328700 -0.50709000
C 0   1.86013506  0.40665600  1.37505900
C 0   1.85191332  1.75290300  1.87236300
C 0   2.49066501 -3.70220600 -0.42113800
H 0   3.44759906 -4.27827200 -0.59153800
C 0  -1.89460483  2.18886500  1.34229400
C 0  -1.60847664  0.04225000  2.44254900
H 0  -1.45825115 -1.02702500  2.40771200
C 0   1.93524887 -0.62790300  2.36195200
H 0   1.97243659 -1.65906400  2.04521500
C 0  -1.85791572  2.02407800  3.78017400
H 0  -1.91715786  2.50708000  4.74815100
C 0  -2.55790504 -2.28730400  0.38372300
H 0  -3.58659631 -1.81434400  0.50342700
C 0  -1.87499254  1.98025300 -3.26008800
H 0  -1.84942346  3.00602900 -3.60919500
C 0   1.76210541  0.76701800 -1.21914100
C 0  -1.89666929  3.13594400  0.25924100
H 0  -1.92581350  4.17143300  0.58431100
C 0  -1.94763983  0.95518900 -4.17545700
H 0  -1.98264852  1.17003200 -5.23669600
C 0  -1.84396529  2.95542500 -1.07578900
H 0  -1.82613631  3.86784300 -1.66423700
C 0   1.87524503  1.97339900  3.26423800
H 0   1.84971096  2.99843800  3.61550800
C 0  -1.66197205  0.64359400  3.67979400
H 0  -1.54965779  0.03773200  4.57151700
C 0  -1.93513748 -0.62294000 -2.36327900
H 0  -1.97238991 -1.65476100 -2.04870200
C 0   1.94803871  0.94641300  4.17744200
H 0   1.98322882  1.15903100  5.23912300
C 0   1.95336003  2.77460400 -2.61703400
H 0   2.07190584  3.85081600 -2.68059700
C 0   1.99619689 -0.37237300  3.71002300
H 0   2.07682616 -1.19837700  4.40661800
C 0   1.85788602  2.03201600 -3.77592100
H 0   1.91715256  2.51705500 -4.74287700
C 0   1.89619614  3.13649300 -0.25265600
H 0   1.92503057  4.17267000 -0.57555100
C 0  -1.99591363 -0.36457400 -3.71081600
H 0  -2.07651214 -1.18910900 -4.40915300
C 0   1.84366294  2.95316000  1.08199600
H 0   1.82567802  3.86433700  1.67236000
C 0   1.60855409  0.04736400 -2.44246500
H 0   1.45841983 -1.02199400 -2.40988200
C 0   1.66207920  0.65130400 -3.67844300
H 0   1.54988588  0.04729700 -4.57143800

