%chk=opt.chk
%mem=24GB
%nprocshared=28
#p opt UM062X/6-311+G** nosymm int=superfine SCF=(Tight,MaxCycle=200)

Title Card Required

1 2
C -1  -1.07003824  0.00000000  0.00000000
C -1   1.07003824  0.00000000 -0.00000000
C 0   0.00000794 -2.15641600  0.00035500
C 0   0.00001500 -3.53176600  0.00057200
C 0  -0.99761029 -4.32427500  0.27970800
C 0  -1.06918853 -1.48110800  0.26120100
C 0   0.58072941 -5.72058700 -0.16372700
H 0   1.11985412 -6.59818100 -0.31972100
C 0  -1.29876176  0.83924400  1.16049800
C 0  -0.58093500 -5.72054000  0.16439000
H 0  -1.12014706 -6.59809200  0.32024000
C 0   0.99754324 -4.32435700 -0.27879900
C 0   1.06916559 -1.48115600 -0.26092300
C 0   1.47468794  2.25440400 -1.16868900
C 0  -1.29814941  0.30603300 -1.40736600
C 0  -1.66581529  2.91080500  2.39776700
H 0  -1.80671206  3.98261000  2.37971100
C 0  -2.03173147 -3.66420300  0.57630300
H 0  -2.83921588 -4.19797000  0.80625700
C 0  -1.37079441  1.60942100 -1.98926600
C 0   2.05684059 -2.23542700 -0.55533500
H 0   2.89020265 -1.73401000 -0.73946300
C 0   1.29831441  0.30612000  1.40730900
C 0   1.37083676  1.60950600  1.98921100
C 0   2.03159206 -3.66436000 -0.57587200
H 0   2.83899176 -4.19817900 -0.80608800
C 0  -1.47530206  2.25426600  1.16871200
C 0  -1.29168618  0.19487900  2.42776200
H 0  -1.12923794 -0.86727000  2.47572600
C 0   1.41666000 -0.78817100  2.31078900
H 0   1.39980618 -1.80013300  1.93766400
C 0  -1.67894735  2.24305700  3.60206400
H 0  -1.83264882  2.78230300  4.52521400
C 0  -2.05693853 -2.23527500  0.55555000
H 0  -2.89032176 -1.73379100  0.73935900
C 0  -1.49864029  1.73853600 -3.38703700
H 0  -1.53440118  2.73906600 -3.80157800
C 0   1.29870265  0.83928600 -1.16052200
C 0  -1.43466353  3.13328800  0.02989000
H 0  -1.47772941  4.18685100  0.28738700
C 0  -1.60481559  0.65295200 -4.22298900
H 0  -1.71974471  0.79238800 -5.28919700
C 0  -1.36355735  2.86449500 -1.28690100
H 0  -1.35254735  3.73278800 -1.93870900
C 0   1.49928882  1.73861300  3.38691600
H 0   1.53501353  2.73914300  3.80146400
C 0  -1.47935206  0.86412900  3.61171400
H 0  -1.46306029  0.31624300  4.54594900
C 0  -1.41607676 -0.78825600 -2.31093200
H 0  -1.39923618 -1.80022700 -1.93784700
C 0   1.60600676  0.65303000  4.22277600
H 0   1.72138765  0.79245400  5.28892300
C 0   1.66516853  2.91106900 -2.39767900
H 0   1.80559941  3.98295200 -2.37956000
C 0   1.57857882 -0.62738900  3.66585200
H 0   1.68175500 -1.50257400  4.29316200
C 0   1.67881588  2.24335300 -3.60198400
H 0   1.83252353  2.78267900 -4.52508500
C 0   1.43334265  3.13343700 -0.02990000
H 0   1.47554735  4.18703300 -0.28744400
C 0  -1.57751118 -0.62746600 -3.66607200
H 0  -1.68037059 -1.50265200 -4.29345000
C 0   1.36265029  2.86460000  1.28690700
H 0   1.35112500  3.73287300  1.93872900
C 0   1.29193765  0.19499300 -2.42782300
H 0   1.12968353 -0.86718000 -2.47590300
C 0   1.47963706  0.86435600 -3.61171000
H 0   1.46366559  0.31649400 -4.54596700

