%chk=opt.chk
%mem=4GB
%nprocshared=8
#p opt UM062X/6-311+G** nosymm int=superfine

Title Card Required

0 1
B -1 -1.12060700 -0.00000000  0.00000000
B -1  1.12060700  0.00000000 -0.00000000
H  0 -1.74858405 -1.01313617 -0.00000000
H  0  1.74858405  1.01312256 -0.00521898
H  0 -1.74858696  1.01313284 -0.00000499
H  0  1.74858696 -1.01311926  0.00521398

