%chk=force.chk 
%mem=4GB
%nprocshared=8
#p UM062X/6-311+G** force int=superfine  pop=saveNBO 

Title Card Required

0 1
C -0.91021951  0.00000000  0.00000000
S  0.91021951  0.00000000  0.00000000
H  1.06476646 -1.33222963 -0.00000000
H -1.21438916  1.04535880  0.00291649
H -1.30523025 -0.47661502 -0.89490684
H -1.30514506 -0.48142108  0.89236600

