%chk=opt.chk
%mem=4GB
%nprocshared=8
#p opt UM062X/6-311+G** nosymm int=superfine

Title Card Required

0 1
C -1 -2.21021951  0.00000000  0.00000000
S -1  2.21021951  0.00000000  0.00000000
H  0  2.36476646 -1.33222963 -0.00000000
H  0 -2.51438916  1.04535880  0.00291649
H  0 -2.60523025 -0.47661502 -0.89490684
H  0 -2.60514506 -0.48142108  0.89236600

