%chk=opt.chk
%mem=4GB
%nprocshared=8
#p opt UM062X/6-311+G** nosymm int=superfine

Title Card Required

0 1
C -1  -2.410220   0.000000   0.000000
S -1  2.410220   0.000000   0.000000
H  0  2.400378   -1.342067   0.082146
H  0  -2.367051   1.080130   0.015275
H  0  -2.443046   -0.525656   -0.944137
H  0  -2.445667   -0.552010   0.928871

