%oldchk=../00135/opt.chk
%chk=opt.chk
%mem=4GB
%nprocshared=8
#p opt UM062X/6-311+G** nosymm int=superfine SCF=(MaxCycle=200,NoVarAcc,noincfock) guess=read

Title Card Required

-1 2
B -1  -1.391404   0.000000   0.000000
B -1  1.391404   0.000000   0.000000
H  0  -2.627909   -0.104129   0.031476
H  0  2.547310   0.336463   -0.328528

