%oldchk=b3lyp.chk
%chk=opt.chk
%mem=4GB
%nprocshared=8
#p opt UM062X/6-311+G** nosymm int=superfine SCF=(MaxCycle=200,NoVarAcc,noincfock) guess=read

Title Card Required

-1 2
B -1  -1.441404   0.000000   0.000000
B -1  1.441404   0.000000   0.000000
H  0  -2.654876   -0.495652   0.110021
H  0  2.627920   0.541898   -0.170190

