%chk=opt.chk
%mem=4GB
%nprocshared=8
#p opt UM062X/6-311+G** nosymm int=superfine

Title Card Required

1 2
 C               -1   -1.42665776    0.00000000    0.00000000
 C               -1    1.42665776    0.00000000    0.00000000
 H                0    1.17311822   -1.03697913   -0.07274600
 H                0   -1.17308886   -1.03697190    0.07274676
 H                0    1.58245990    0.44661305    0.95977210
 H                0    1.52439515    0.59036608   -0.88702609
 H                0   -1.58245131    0.44661306   -0.95977349
 H                0   -1.52443311    0.59035884    0.88702673

