%chk=opt.chk
%mem=24GB
%nprocshared=64
#p opt UM062X/6-311+G** nosymm int=superfine

Title Card Required

1 2
C -1  -1.22692567  0.00000000 -0.00000000
C -1   1.22692567  0.00000000  0.00000000
C 0  -0.00000767 -2.10939150  0.00000000
C 0  -0.00003646 -3.49739450 -0.00002923
C 0  -0.97436337 -4.30978824  0.23683941
C 0  -1.08951888 -1.47743341  0.21180861
C 0   0.56933753 -5.70448148 -0.14037520
H 0   1.10423280 -6.57770083 -0.27590245
C 0  -1.33784657  0.79909228  1.19497871
C 0  -0.56943994 -5.70445753  0.14058092
H 0  -1.10435410 -6.57765518  0.27615289
C 0   0.97428274 -4.30982477 -0.23673149
C 0   1.08952360 -1.47746159 -0.21171188
C 0   1.48142424  2.22015782 -1.26414711
C 0  -1.36482817  0.36304969 -1.38863642
C 0  -1.60914078  2.83477859  2.52156339
H 0  -1.73090733  3.90897484  2.54870898
C 0  -2.00180137 -3.68593494  0.49420130
H 0  -2.78424501 -4.24085414  0.69215352
C 0  -1.38946097  1.69172550 -1.92531445
C 0   2.04094956 -2.26363507 -0.46776802
H 0   2.86401905 -1.77391050 -0.61586487
C 0   1.36480042  0.36320231  1.38856797
C 0   1.38930932  1.69192550  1.92515097
C 0   2.00178665 -3.68600507 -0.49384898
H 0   2.78424917 -4.24095586 -0.69161423
C 0  -1.48180705  2.22017516  1.26398248
C 0  -1.27221625  0.11335766  2.44139402
H 0  -1.12663174 -0.95247618  2.44459888
C 0   1.45160126 -0.69940635  2.34047366
H 0   1.46447898 -1.72224140  1.99670883
C 0  -1.58160165  2.12465651  3.70314913
H 0  -1.69003670  2.63347160  4.65105868
C 0  -2.04093028 -2.26355193  0.46808304
H 0  -2.86396610 -1.77379450  0.61631016
C 0  -1.45258168  1.87110722 -3.32211454
H 0  -1.45357900  2.88568909 -3.70323753
C 0   1.33779017  0.79902971 -1.19505569
C 0  -1.45687485  3.13669941  0.15424373
H 0  -1.49419703  4.18083977  0.44851673
C 0  -1.53582505  0.81743900 -4.20129371
H 0  -1.60182053  0.99791802 -5.26660776
C 0  -1.39021045  2.91654451 -1.17256652
H 0  -1.37379069  3.80967096 -1.78986703
C 0   1.45271959  1.87140379  3.32191113
H 0   1.45362721  2.88600091  3.70298763
C 0  -1.39521184  0.74609370  3.65570968
H 0  -1.34229634  0.16759911  4.56943471
C 0  -1.45151156 -0.69962065 -2.34049884
H 0  -1.46448584 -1.72243661 -1.99668506
C 0   1.53625454  0.81779202  4.20113081
H 0   1.60252496  0.99835301  5.26640679
C 0   1.60888981  2.83471440 -2.52173664
H 0   1.73046138  3.90893814 -2.54891016
C 0   1.55018525 -0.48541917  3.69307679
H 0   1.63482234 -1.33313772  4.36004668
C 0   1.58169204  2.12450650 -3.70328028
H 0   1.69021270  2.63327641 -4.65120146
C 0   1.45603525  3.13677656 -0.15449784
H 0   1.49287766  4.18090918 -0.44887282
C 0  -1.54985193 -0.48573282 -3.69314018
H 0  -1.63436128 -1.33350526 -4.36006394
C 0   1.38949949  2.91669446  1.17232838
H 0   1.37266863  3.80985499  1.78956641
C 0   1.27250405  0.11321235 -2.44144785
H 0   1.12717292 -0.95266380 -2.44465558
C 0   1.39555193  0.74590932 -3.65577389
H 0   1.34286182  0.16732892 -4.56946386

