%chk=opt.chk
%mem=24GB
%nprocshared=64
#p opt UM062X/6-311+G** nosymm int=superfine

Title Card Required

1 2
C -1  -1.36959145  0.00000000 -0.00000000
C -1   1.36959145  0.00000000  0.00000000
C 0  -0.00000856 -2.10939150  0.00000000
C 0  -0.00004070 -3.49739450 -0.00002923
C 0  -1.08766143 -4.30978824  0.23683941
C 0  -1.21620712 -1.47743341  0.21180861
C 0   0.63553956 -5.70448148 -0.14037520
H 0   1.23263196 -6.57770083 -0.27590245
C 0  -1.49341013  0.79909228  1.19497871
C 0  -0.63565389 -5.70445753  0.14058092
H 0  -1.23276737 -6.57765518  0.27615289
C 0   1.08757143 -4.30982477 -0.23673149
C 0   1.21621239 -1.47746159 -0.21171188
C 0   1.65368287  2.22015782 -1.26414711
C 0  -1.52352912  0.36304969 -1.38863642
C 0  -1.79625017  2.83477859  2.52156339
H 0  -1.93217562  3.90897484  2.54870898
C 0  -2.23456897 -3.68593494  0.49420130
H 0  -3.10799443 -4.24085414  0.69215352
C 0  -1.55102620  1.69172550 -1.92531445
C 0   2.27826927 -2.26363507 -0.46776802
H 0   3.19704452 -1.77391050 -0.61586487
C 0   1.52349814  0.36320231  1.38856797
C 0   1.55085691  1.69192550  1.92515097
C 0   2.23455253 -3.68600507 -0.49384898
H 0   3.10799907 -4.24095586 -0.69161423
C 0  -1.65411019  2.22017516  1.26398248
C 0  -1.42014837  0.11335766  2.44139402
H 0  -1.25763543 -0.95247618  2.44459888
C 0   1.62039210 -0.69940635  2.34047366
H 0   1.63476724 -1.72224140  1.99670883
C 0  -1.76550882  2.12465651  3.70314913
H 0  -1.88655259  2.63347160  4.65105868
C 0  -2.27824776 -2.26355193  0.46808304
H 0  -3.19698541 -1.77379450  0.61631016
C 0  -1.62148653  1.87110722 -3.32211454
H 0  -1.62259981  2.88568909 -3.70323753
C 0   1.49334717  0.79902971 -1.19505569
C 0  -1.62627890  3.13669941  0.15424373
H 0  -1.66794087  4.18083977  0.44851673
C 0  -1.71440936  0.81743900 -4.20129371
H 0  -1.78807873  0.99791802 -5.26660776
C 0  -1.55186283  2.91654451 -1.17256652
H 0  -1.53353379  3.80967096 -1.78986703
C 0   1.62164048  1.87140379  3.32191113
H 0   1.62265363  2.88600091  3.70298763
C 0  -1.55744578  0.74609370  3.65570968
H 0  -1.49837731  0.16759911  4.56943471
C 0  -1.62029197 -0.69962065 -2.34049884
H 0  -1.63477489 -1.72243661 -1.99668506
C 0   1.71488879  0.81779202  4.20113081
H 0   1.78886508  0.99835301  5.26640679
C 0   1.79597002  2.83471440 -2.52173664
H 0   1.93167782  3.90893814 -2.54891016
C 0   1.73043935 -0.48541917  3.69307679
H 0   1.82491796 -1.33313772  4.36004668
C 0   1.76560972  2.12450650 -3.70328028
H 0   1.88674906  2.63327641 -4.65120146
C 0   1.62534167  3.13677656 -0.15449784
H 0   1.66646809  4.18090918 -0.44887282
C 0  -1.73006727 -0.48573282 -3.69314018
H 0  -1.82440329 -1.33350526 -4.36006394
C 0   1.55106920  2.91669446  1.17232838
H 0   1.53228126  3.80985499  1.78956641
C 0   1.42046964  0.11321235 -2.44144785
H 0   1.25823954 -0.95266380 -2.44465558
C 0   1.55782541  0.74590932 -3.65577389
H 0   1.49900854  0.16732892 -4.56946386

