%chk=opt.chk
%mem=4GB
%nprocshared=8
#p opt UM062X/6-311+G** nosymm int=superfine

Title Card Required

0 1
C -1 -1.00545248  0.00000000  0.00000000
P -1  1.00545248  0.00000000  0.00000000
H  0 -1.62630431 -0.88884363  0.00000000
H  0  1.18587048 -1.41087917  0.00126115
H  0 -1.53843765  0.94545478  0.00008691

