%chk=opt.chk
%mem=4GB
%nprocshared=8
#p opt UM062X/6-311+G** nosymm int=superfine

Title Card Required

0 1
C -1  -2.280452   0.000000   0.000000
P -1  2.280452   0.000000   0.000000
H  0  -3.016452   -0.824678   -0.065342
H  0  1.960505   -1.384884   -0.035517
H  0  -2.928965   0.896528   0.041904

