%chk=opt.chk
%mem=4GB
%nprocshared=8
#p opt UM062X/6-311+G** nosymm int=superfine

Title Card Required

0 1
C -1 -0.98220268 -0.00000000  0.00000000
O -1  0.98220268  0.00000000  0.00000000
H  0  1.29239059 -0.90717021 -0.00000000
H  0 -1.39314122 -0.48457010  0.89176581
H  0 -1.29811723  1.04220234 -0.00091804
H  0 -1.39253225 -0.48604336 -0.89118274

