%chk=opt.chk
%mem=4GB
%nprocshared=8
#p opt UM062X/6-311+G** nosymm int=superfine

Title Card Required

0 1
C -1 -1.45720268 -0.00000000  0.00000000
O -1  1.45720268  0.00000000  0.00000000
H  0  1.76739059 -0.90717021 -0.00000000
H  0 -1.86814122 -0.48457010  0.89176581
H  0 -1.77311723  1.04220234 -0.00091804
H  0 -1.86753225 -0.48604336 -0.89118274

