%chk=opt.chk
%mem=24GB
%nprocshared=32
#p opt UM062X/6-311+G** nosymm int=superfine

Title Card Required

1 2
C -1  -1.55505696  0.00000000 -0.00000000
C -1   1.55505696  0.00000000  0.00000000
C 0  -0.00000972 -2.10939150  0.00000000
C 0  -0.00004622 -3.49739450 -0.00002923
C 0  -1.23494892 -4.30978824  0.23683941
C 0  -1.38090184 -1.47743341  0.21180861
C 0   0.72160221 -5.70448148 -0.14037520
H 0   1.39955088 -6.57770083 -0.27590245
C 0  -1.69564275  0.79909228  1.19497871
C 0  -0.72173202 -5.70445753  0.14058092
H 0  -1.39970462 -6.57765518  0.27615289
C 0   1.23484673 -4.30982477 -0.23673149
C 0   1.38090782 -1.47746159 -0.21171188
C 0   1.87761909  2.22015782 -1.26414711
C 0  -1.72984036  0.36304969 -1.38863642
C 0  -2.03949238  2.83477859  2.52156339
H 0  -2.19382440  3.90897484  2.54870898
C 0  -2.53716685 -3.68593494  0.49420130
H 0  -3.52886868 -4.24085414  0.69215352
C 0  -1.76106100  1.69172550 -1.92531445
C 0   2.58678490 -2.26363507 -0.46776802
H 0   3.62997763 -1.77391050 -0.61586487
C 0   1.72980518  0.36320231  1.38856797
C 0   1.76086879  1.69192550  1.92515097
C 0   2.53714819 -3.68600507 -0.49384898
H 0   3.52887394 -4.24095586 -0.69161423
C 0  -1.87810428  2.22017516  1.26398248
C 0  -1.61246013  0.11335766  2.44139402
H 0  -1.42794023 -0.95247618  2.44459888
C 0   1.83982020 -0.69940635  2.34047366
H 0   1.85614197 -1.72224140  1.99670883
C 0  -2.00458814  2.12465651  3.70314913
H 0  -2.14202326  2.63347160  4.65105868
C 0  -2.58676048 -2.26355193  0.46808304
H 0  -3.62991052 -1.77379450  0.61631016
C 0  -1.84106283  1.87110722 -3.32211454
H 0  -1.84232687  2.88568909 -3.70323753
C 0   1.69557127  0.79902971 -1.19505569
C 0  -1.84650417  3.13669941  0.15424373
H 0  -1.89380787  4.18083977  0.44851673
C 0  -1.94656896  0.81743900 -4.20129371
H 0  -2.03021439  0.99791802 -5.26660776
C 0  -1.76201092  2.91654451 -1.17256652
H 0  -1.74119982  3.80967096 -1.78986703
C 0   1.84123762  1.87140379  3.32191113
H 0   1.84238798  2.88600091  3.70298763
C 0  -1.76834989  0.74609370  3.65570968
H 0  -1.70128257  0.16759911  4.56943471
C 0  -1.83970651 -0.69962065 -2.34049884
H 0  -1.85615066 -1.72243661 -1.99668506
C 0   1.94711331  0.81779202  4.20113081
H 0   2.03110722  0.99835301  5.26640679
C 0   2.03917429  2.83471440 -2.52173664
H 0   2.19325920  3.90893814 -2.54891016
C 0   1.96476968 -0.48541917  3.69307679
H 0   2.07204227 -1.33313772  4.36004668
C 0   2.00470270  2.12450650 -3.70328028
H 0   2.14224632  2.63327641 -4.65120146
C 0   1.84544002  3.13677656 -0.15449784
H 0   1.89213564  4.18090918 -0.44887282
C 0  -1.96434722 -0.48573282 -3.69314018
H 0  -2.07145790 -1.33350526 -4.36006394
C 0   1.76110982  2.91669446  1.17232838
H 0   1.73977768  3.80985499  1.78956641
C 0   1.61282490  0.11321235 -2.44144785
H 0   1.42862615 -0.95266380 -2.44465558
C 0   1.76878093  0.74590932 -3.65577389
H 0   1.70199928  0.16732892 -4.56946386

