%chk=opt.chk
%mem=4GB
%nprocshared=8
#p opt UM062X/6-311+G** nosymm int=superfine

Title Card Required

0 1
N     -0.697150    0.142298    0.215917
N      0.697151   -0.142450    0.215817
H     -1.191886   -0.701805    0.473781
H      1.191885    0.701472    0.474274
H     -1.034905    0.451058   -0.690023
H      1.034905   -0.450573   -0.690339

