%chk=opt.chk
%mem=4GB
%nprocshared=8
#p opt UM062X/6-311+G** nosymm int=superfine

Title Card Required

0 1
B -1 -1.07039900  0.00000000 -0.00000000
N -1  1.07039900 -0.00000000  0.00000000
H  0 -1.64541962 -1.04183080 -0.00000000
H  0  1.62176246  0.84339581 -0.00011191
H  0 -1.64541938  1.04182927 -0.00024861
H  0  1.62176055 -0.84339625  0.00010849

