%oldchk=../00205/opt.chk
%chk=opt.chk
%mem=4GB
%nprocshared=8
#p opt UM062X/6-311+G** nosymm int=superfine SCF=(MaxCycle=200,NoVarAcc,noincfock) guess=read

Title Card Required

0 1
B -1  -1.745399   0.000000   0.000000
N -1  1.745399   0.000000   0.000000
H  0  -2.044577   -1.127777   -0.008176
H  0  2.197131   0.897059   0.010979
H  0  -2.044577   1.127775   -0.008473
H  0  2.197130   -0.897057   0.011207

