%chk=opt.chk
%mem=24GB
%nprocshared=28
#p opt UM062X/6-311+G** nosymm int=superfine SCF=(Tight,MaxCycle=200)

Title Card Required

1 2
C -1  -0.97016800  0.00000000  0.00000000
C -1   0.97016800  0.00000000 -0.00000000
C 0   0.00000720 -2.15641600  0.00035500
C 0   0.00001360 -3.53176600  0.00057200
C 0  -0.90450000 -4.32427500  0.27970800
C 0  -0.96939760 -1.48110800  0.26120100
C 0   0.52652800 -5.72058700 -0.16372700
H 0   1.01533440 -6.59818100 -0.31972100
C 0  -1.17754400  0.83924400  1.16049800
C 0  -0.52671440 -5.72054000  0.16439000
H 0  -1.01560000 -6.59809200  0.32024000
C 0   0.90443920 -4.32435700 -0.27879900
C 0   0.96937680 -1.48115600 -0.26092300
C 0   1.33705040  2.25440400 -1.16868900
C 0  -1.17698880  0.30603300 -1.40736600
C 0  -1.51033920  2.91080500  2.39776700
H 0  -1.63808560  3.98261000  2.37971100
C 0  -1.84210320 -3.66420300  0.57630300
H 0  -2.57422240 -4.19797000  0.80625700
C 0  -1.24285360  1.60942100 -1.98926600
C 0   1.86486880 -2.23542700 -0.55533500
H 0   2.62045040 -1.73401000 -0.73946300
C 0   1.17713840  0.30612000  1.40730900
C 0   1.24289200  1.60950600  1.98921100
C 0   1.84197680 -3.66436000 -0.57587200
H 0   2.57401920 -4.19817900 -0.80608800
C 0  -1.33760720  2.25426600  1.16871200
C 0  -1.17112880  0.19487900  2.42776200
H 0  -1.02384240 -0.86727000  2.47572600
C 0   1.28443840 -0.78817100  2.31078900
H 0   1.26915760 -1.80013300  1.93766400
C 0  -1.52224560  2.24305700  3.60206400
H 0  -1.66160160  2.78230300  4.52521400
C 0  -1.86495760 -2.23527500  0.55555000
H 0  -2.62055840 -1.73379100  0.73935900
C 0  -1.35876720  1.73853600 -3.38703700
H 0  -1.39119040  2.73906600 -3.80157800
C 0   1.17749040  0.83928600 -1.16052200
C 0  -1.30076160  3.13328800  0.02989000
H 0  -1.33980800  4.18685100  0.28738700
C 0  -1.45503280  0.65295200 -4.22298900
H 0  -1.55923520  0.79238800 -5.28919700
C 0  -1.23629200  2.86449500 -1.28690100
H 0  -1.22630960  3.73278800 -1.93870900
C 0   1.35935520  1.73861300  3.38691600
H 0   1.39174560  2.73914300  3.80146400
C 0  -1.34127920  0.86412900  3.61171400
H 0  -1.32650800  0.31624300  4.54594900
C 0  -1.28390960 -0.78825600 -2.31093200
H 0  -1.26864080 -1.80022700 -1.93784700
C 0   1.45611280  0.65303000  4.22277600
H 0   1.56072480  0.79245400  5.28892300
C 0   1.50975280  2.91106900 -2.39767900
H 0   1.63707680  3.98295200 -2.37956000
C 0   1.43124480 -0.62738900  3.66585200
H 0   1.52479120 -1.50257400  4.29316200
C 0   1.52212640  2.24335300 -3.60198400
H 0   1.66148800  2.78267900 -4.52508500
C 0   1.29956400  3.13343700 -0.02990000
H 0   1.33782960  4.18703300 -0.28744400
C 0  -1.43027680 -0.62746600 -3.66607200
H 0  -1.52353600 -1.50265200 -4.29345000
C 0   1.23546960  2.86460000  1.28690700
H 0   1.22502000  3.73287300  1.93872900
C 0   1.17135680  0.19499300 -2.42782300
H 0   1.02424640 -0.86718000 -2.47590300
C 0   1.34153760  0.86435600 -3.61171000
H 0   1.32705680  0.31649400 -4.54596700

