%chk=opt.chk
%mem=24GB
%nprocshared=32
#p opt UM062X/6-311+G** nosymm int=superfine

Title Card Required

1 2
C   -1   -1.42665776  0.00000000 -0.00000000
C   -1    1.42665776  0.00000000  0.00000000
C   0    -0.00000892 -2.10939150  0.00000000
C   0    -0.00004240 -3.49739450 -0.00002923
C   0    -1.13298066 -4.30978824  0.23683941
C   0    -1.26688242 -1.47743341  0.21180861
C   0     0.66202038 -5.70448148 -0.14037520
H   0     1.28399163 -6.57770083 -0.27590245
C   0    -1.55563555  0.79909228  1.19497871
C   0    -0.66213947 -5.70445753  0.14058092
H   0    -1.28413268 -6.57765518  0.27615289
C   0     1.13288691 -4.30982477 -0.23673149
C   0     1.26688791 -1.47746159 -0.21171188
C   0     1.72258632  2.22015782 -1.26414711
C   0    -1.58700950  0.36304969 -1.38863642
C   0    -1.87109393  2.83477859  2.52156339
H   0    -2.01268294  3.90897484  2.54870898
C   0    -2.32767601 -3.68593494  0.49420130
H   0    -3.23749420 -4.24085414  0.69215352
C   0    -1.61565229  1.69172550 -1.92531445
C   0     2.37319716 -2.26363507 -0.46776802
H   0     3.33025471 -1.77391050 -0.61586487
C   0     1.58697723  0.36320231  1.38856797
C   0     1.61547595  1.69192550  1.92515097
C   0     2.32765889 -3.68600507 -0.49384898
H   0     3.23749903 -4.24095586 -0.69161423
C   0    -1.72303145  2.22017516  1.26398248
C   0    -1.47932122  0.11335766  2.44139402
H   0    -1.31003691 -0.95247618  2.44459888
C   0     1.68790844 -0.69940635  2.34047366
H   0     1.70288254 -1.72224140  1.99670883
C   0    -1.83907169  2.12465651  3.70314913
H   0    -1.96515895  2.63347160  4.65105868
C   0    -2.37317475 -2.26355193  0.46808304
H   0    -3.33019314 -1.77379450  0.61631016
C   0    -1.68904847  1.87110722 -3.32211454
H   0    -1.69020814  2.88568909 -3.70323753
C   0     1.55556997  0.79902971 -1.19505569
C   0    -1.69404052  3.13669941  0.15424373
H   0    -1.73743841  4.18083977  0.44851673
C   0    -1.78584308  0.81743900 -4.20129371
H   0    -1.86258201  0.99791802 -5.26660776
C   0    -1.61652378  2.91654451 -1.17256652
H   0    -1.59743103  3.80967096 -1.78986703
C   0     1.68920883  1.87140379  3.32191113
H   0     1.69026420  2.88600091  3.70298763
C   0    -1.62233935  0.74609370  3.65570968
H   0    -1.56080970  0.16759911  4.56943471
C   0    -1.68780414 -0.69962065 -2.34049884
H   0    -1.70289051 -1.72243661 -1.99668506
C   0     1.78634249  0.81779202  4.20113081
H   0     1.86340112  0.99835301  5.26640679
C   0     1.87080210  2.83471440 -2.52173664
H   0     2.01216440  3.90893814 -2.54891016
C   0     1.80254099 -0.48541917  3.69307679
H   0     1.90095621 -1.33313772  4.36004668
C   0     1.83917679  2.12450650 -3.70328028
H   0     1.96536360  2.63327641 -4.65120146
C   0     1.69306424  3.13677656 -0.15449784
H   0     1.73590426  4.18090918 -0.44887282
C   0    -1.80215341 -0.48573282 -3.69314018
H   0    -1.90042009 -1.33350526 -4.36006394
C   0     1.61569708  2.91669446  1.17232838
H   0     1.59612631  3.80985499  1.78956641
C   0     1.47965587  0.11321235 -2.44144785
H   0     1.31066619 -0.95266380 -2.44465558
C   0     1.62273480  0.74590932 -3.65577389
H   0     1.56146723  0.16732892 -4.56946386

