%chk=force.chk 
%mem=4GB
%nprocshared=8
#p UM062X/6-311+G** force int=superfine  pop=saveNBO 

Title Card Required

1 2
Si -1.37629201  0.00000000  0.00000000
Si  1.37629201 -0.00000000  0.00000000
H  1.57437173 -1.45402430  0.00000000
H -1.57369400 -0.72694161  1.25938062
H  1.57430601  0.72706046 -1.25920909
H  1.57343328  0.72707028  1.25935341
H -1.57440373  1.45401953 -0.00003421
H -1.57401630 -0.72720125 -1.25918055

