%chk=opt.chk
%mem=4GB
%nprocshared=8
#p opt UM062X/6-311+G** nosymm int=superfine

Title Card Required

0 1
P -1 -1.89221652 -0.00000000  0.00000000
P -1  1.89221652  0.00000000  0.00000000
H  0  2.00905294 -1.40926420  0.00000000
H  0 -2.00906894  1.39816272 -0.17652327
H  0  2.13226494  0.11793735 -1.38980210
H  0 -2.13226503 -0.29110265 -1.36408209

