%chk=opt.chk
%mem=4GB
%nprocshared=8
#p opt UM062X/6-311+G** nosymm int=superfine

Title Card Required

0 1
P -1  -2.092217   0.000000   0.000000
P -1  2.092217   0.000000   0.000000
H  0  2.005063   -1.010901   0.983032
H  0  -1.998117   1.061048   0.936846
H  0  2.001680   -0.946977   -1.047810
H  0  -2.000046   0.894169   -1.090247

