%chk=opt.chk
%mem=4GB
%nprocshared=8
#p opt UM062X/6-311+G** nosymm int=superfine

Title Card Required

0 1
P -1  -2.217217   0.000000   0.000000
P -1  2.217217   0.000000   0.000000
H  0  2.111705   -1.041740   0.957408
H  0  -2.113254   1.097993   0.892512
H  0  2.118441   -0.917449   -1.077989
H  0  -2.117799   0.850258   -1.131332

