%chk=opt.chk
%mem=4GB
%nprocshared=8
#p opt UM062X/6-311+G** nosymm int=superfine

Title Card Required

0 1
P -1  -2.442188   0.000000   0.000000
P -1  2.442188   -0.000000   0.000000
H  0  2.318172   -1.033536   0.964231
H  0  -2.327768   1.100946   0.887699
H  0  2.330186   -0.923237   -1.071799
H  0  -2.329554   0.844103   -1.135036

