%chk=opt.chk
%mem=4GB
%nprocshared=8
#p opt UM062X/6-311+G** nosymm int=superfine

Title Card Required

0 1
P -1  -2.567217   0.000000   0.000000
P -1  2.567217   0.000000   0.000000
H  0  2.447614   -1.022245   0.976929
H  0  -2.454808   1.097654   0.892413
H  0  2.455876   -0.936530   -1.060487
H  0  -2.452890   0.849440   -1.130962

