%chk=opt.chk
%mem=4GB
%nprocshared=8
#p opt UM062X/6-311+G** nosymm int=superfine 

Title Card Required

1 2
C -1 -0.64327172  0.00000000 -0.00000000
C -1  0.64327172 -0.00000000  0.00000000
H 0 -1.14907338 -0.93229700  0.00000000
H 0 -1.14608312  0.93665800  0.00000000
H 0  1.14907338  0.93229700 -0.00000000
H 0  1.14608312 -0.93665800 -0.00000000

