%chk=opt.chk
%mem=4GB
%nprocshared=8
#p opt UM062X/6-311+G** nosymm int=superfine 

Title Card Required

1 2
C -1 -0.74223660  0.00000000 -0.00000000
C -1  0.74223660 -0.00000000  0.00000000
H 0 -1.32585390 -0.93229700  0.00000000
H 0 -1.32240360  0.93665800  0.00000000
H 0  1.32585390  0.93229700 -0.00000000
H 0  1.32240360 -0.93665800 -0.00000000

