%oldchk=../00215/opt.chk
%chk=opt.chk
%mem=4GB
%nprocshared=8
#p opt UM062X/6-311+G** nosymm int=superfine SCF=(MaxCycle=200,NoVarAcc,noincfock) guess=read

Title Card Required

0 1
O -1 -1.81193780  0.00000000 -0.00000000
O -1  1.81193780  0.00000000  0.00000000
H  0 -2.00172194 -0.94528220 -0.00000000
H  0  2.00172194  0.46009715  0.82575362

