%chk=freq.chk
%mem=12GB
%nprocshared=20
#p UM062X/6-31+G** freq=raman int=superfine 

Title Card Required

1 2
C     0.988448    0.000053   -0.000041
C    -0.988448   -0.000053    0.000041
H    -1.130071   -1.059282    0.192128
H     1.130937   -0.363190    1.013198
H    -1.130894    0.363179   -1.013206
H    -1.130531    0.695833    0.821300
H     1.130067    1.059286   -0.192111
H     1.130494   -0.695827   -0.821311

