%chk=opt.chk
%mem=4GB
%nprocshared=8
#p opt UM062X/6-311+G** nosymm int=superfine

Title Card Required

0 1
N -1 -0.91154000  0.00000000  0.00000000
N -1  0.91154000  0.00000000 -0.00000000
H  0 -1.22739016 -0.96125236  0.00000000
H  0  1.22738814  0.82258562 -0.49735193
H  0 -1.30418155  0.46933657  0.80974950
H  0  1.30418045  0.01733258  0.93577204

