%chk=opt.chk
%mem=4GB
%nprocshared=8
#p opt UM062X/6-311+G** nosymm int=superfine

Title Card Required

0 1
N -1 -2.03654000  0.00000000  0.00000000
N -1  2.03654000  0.00000000 -0.00000000
H  0 -2.35239016 -0.96125236  0.00000000
H  0  2.35238814  0.82258562 -0.49735193
H  0 -2.42918155  0.46933657  0.80974950
H  0  2.42918045  0.01733258  0.93577204

