%oldchk=../00110/opt.chk
%chk=opt.chk
%mem=4GB
%nprocshared=8
#p opt UM062X/6-311+G** nosymm int=superfine SCF=(MaxCycle=200,NoVarAcc,noincfock) guess=read

Title Card Required

1 2
Si -1 -1.69129500  0.00000000 -0.00000000
Si -1  1.69129500 -0.00000000  0.00000000
H  0 -2.41976642 -1.27360581  0.00000000
H  0  2.41976642  1.27360582  0.00120000
H  0 -2.41978759  1.27360113 -0.00009500
H  0  2.41978759 -1.27360099 -0.00129500

