%chk=opt.chk
%mem=24GB
%nprocshared=32
#p opt UM062X/6-311+G** nosymm int=superfine

Title Card Required

1 2
C -1  -1.46945749  0.00000000 -0.00000000
C -1   1.46945749  0.00000000  0.00000000
C 0  -0.00000919 -2.10939150  0.00000000
C 0  -0.00004367 -3.49739450 -0.00002923
C 0  -1.16697008 -4.30978824  0.23683941
C 0  -1.30488889 -1.47743341  0.21180861
C 0   0.68188099 -5.70448148 -0.14037520
H 0   1.32251138 -6.57770083 -0.27590245
C 0  -1.60230462  0.79909228  1.19497871
C 0  -0.68200365 -5.70445753  0.14058092
H 0  -1.32265666 -6.57765518  0.27615289
C 0   1.16687352 -4.30982477 -0.23673149
C 0   1.30489455 -1.47746159 -0.21171188
C 0   1.77426391  2.22015782 -1.26414711
C 0  -1.63461978  0.36304969 -1.38863642
C 0  -1.92722675  2.83477859  2.52156339
H 0  -2.07306343  3.90897484  2.54870898
C 0  -2.39750629 -3.68593494  0.49420130
H 0  -3.33461903 -4.24085414  0.69215352
C 0  -1.66412186  1.69172550 -1.92531445
C 0   2.44439307 -2.26363507 -0.46776802
H 0   3.43016235 -1.77391050 -0.61586487
C 0   1.63458655  0.36320231  1.38856797
C 0   1.66394023  1.69192550  1.92515097
C 0   2.39748866 -3.68600507 -0.49384898
H 0   3.33462400 -4.24095586 -0.69161423
C 0  -1.77472239  2.22017516  1.26398248
C 0  -1.52370086  0.11335766  2.44139402
H 0  -1.34933802 -0.95247618  2.44459888
C 0   1.73854569 -0.69940635  2.34047366
H 0   1.75396902 -1.72224140  1.99670883
C 0  -1.89424384  2.12465651  3.70314913
H 0  -2.02411372  2.63347160  4.65105868
C 0  -2.44436999 -2.26355193  0.46808304
H 0  -3.43009893 -1.77379450  0.61631016
C 0  -1.73971992  1.87110722 -3.32211454
H 0  -1.74091438  2.88568909 -3.70323753
C 0   1.60223707  0.79902971 -1.19505569
C 0  -1.74486174  3.13669941  0.15424373
H 0  -1.78956156  4.18083977  0.44851673
C 0  -1.83941837  0.81743900 -4.20129371
H 0  -1.91845947  0.99791802 -5.26660776
C 0  -1.66501949  2.91654451 -1.17256652
H 0  -1.64535396  3.80967096 -1.78986703
C 0   1.73988509  1.87140379  3.32191113
H 0   1.74097213  2.88600091  3.70298763
C 0  -1.67100953  0.74609370  3.65570968
H 0  -1.60763399  0.16759911  4.56943471
C 0  -1.73843826 -0.69962065 -2.34049884
H 0  -1.75397723 -1.72243661 -1.99668506
C 0   1.83993276  0.81779202  4.20113081
H 0   1.91930315  0.99835301  5.26640679
C 0   1.92692616  2.83471440 -2.52173664
H 0   2.07252933  3.90893814 -2.54891016
C 0   1.85661722 -0.48541917  3.69307679
H 0   1.95798490 -1.33313772  4.36004668
C 0   1.89435209  2.12450650 -3.70328028
H 0   2.02432451  2.63327641 -4.65120146
C 0   1.74385617  3.13677656 -0.15449784
H 0   1.78798139  4.18090918 -0.44887282
C 0  -1.85621801 -0.48573282 -3.69314018
H 0  -1.95743269 -1.33350526 -4.36006394
C 0   1.66416799  2.91669446  1.17232838
H 0   1.64401010  3.80985499  1.78956641
C 0   1.52404555  0.11321235 -2.44144785
H 0   1.34998618 -0.95266380 -2.44465558
C 0   1.67141684  0.74590932 -3.65577389
H 0   1.60831125  0.16732892 -4.56946386

