%chk=opt.chk
%mem=4GB
%nprocshared=8
#p opt UM062X/6-311+G** nosymm int=superfine

Title Card Required

-1 2
B -1 -0.94727400  0.00000000  0.00000000
B -1  0.94727400  0.00000000  0.00000000
H  0 -1.61784376 -1.01583528  0.00000000
H  0  1.61784376  1.01583534 -0.00047700
H  0 -1.61784625  1.01583374 -0.00000500
H  0  1.61784625 -1.01583380  0.00047200

