%chk=opt.chk
%mem=4GB
%nprocshared=8
#p opt UM062X/6-311+G** nosymm int=superfine

Title Card Required

-1 2
B -1  -1.597274   0.000000   0.000000
B -1  1.597274   0.000000   0.000000
H  0  -2.164275   -1.037214   -0.069331
H  0  2.144051   1.029803   0.206871
H  0  -2.164256   1.037261   -0.068778
H  0  2.144032   -1.029487   0.208488

