%oldchk=../00165/opt.chk
%chk=opt.chk
%mem=4GB
%nprocshared=8
#p opt UM062X/6-311+G** nosymm int=superfine SCF=(MaxCycle=200,NoVarAcc,noincfock) guess=read

Title Card Required

-1 2
B -1  -1.672274   0.000000   0.000000
B -1  1.672274   0.000000   0.000000
H  0  -2.166530   -1.081585   -0.052238
H  0  2.168302   1.082023   0.005327
H  0  -2.166528   1.081643   -0.051037
H  0  2.168300   -1.082006   0.008149

