%chk=opt.chk
%mem=24GB
%nprocshared=28
#p opt UM062X/6-311+G** nosymm int=superfine 

Title Card Required

1 2
C -1  -1.92594635  0.00000000 -0.00000000
C -1   1.92594635  0.00000000 -0.00000000
C 0  -0.00014850 -1.98856500 -0.00626500
C 0   0.00001454 -3.39883100 -0.01071700
C 0  -1.16257638 -4.24606900  0.22573300
C 0  -1.40148588 -1.42477300  0.18087700
C 0   0.68391415 -5.63715200 -0.16281300
H 0   1.33980958 -6.50179000 -0.30831200
C 0  -1.94392212  0.78920500  1.20146600
C 0  -0.68350812 -5.63816300  0.12703300
H 0  -1.33929035 -6.50380800  0.26692800
C 0   1.16274150 -4.24438900 -0.25267800
C 0   1.40109646 -1.42348500 -0.19007300
C 0   2.44493204  2.14234500 -1.32746000
C 0  -2.19304073  0.35445900 -1.36980700
C 0  -2.40655569  2.75022300  2.60467900
H 0  -2.80414315  3.76040100  2.68886500
C 0  -2.42099446 -3.68227900  0.49339100
H 0  -3.34130608 -4.27011000  0.70123600
C 0  -2.62541665  1.63923000 -1.85430600
C 0   2.50248358 -2.26839800 -0.46237000
H 0   3.51528888 -1.81229400 -0.59929500
C 0   2.19306358  0.34580200  1.37186900
C 0   2.62668150  1.62727300  1.86419900
C 0   2.42100900 -3.67874100 -0.51698800
H 0   3.34138708 -4.26508000 -0.72872400
C 0  -2.44122058  2.13502500  1.34065100
C 0  -1.40794823  0.17930900  2.38518300
H 0  -1.02339450 -0.83322500  2.33620100
C 0   1.97674996 -0.66985100  2.35708400
H 0   1.70355981 -1.66852200  2.04270600
C 0  -1.87858938  2.12232200  3.72278700
H 0  -1.86724315  2.63208100  4.67823000
C 0  -2.50271515 -2.27164700  0.44763000
H 0  -3.51559835 -1.81652600  0.58725300
C 0  -2.73766915  1.84911600 -3.24158500
H 0  -3.05654642  2.83007500 -3.58446800
C 0   1.94443408  0.79678700 -1.19631800
C 0  -2.97057842  2.96691100  0.28298800
H 0  -3.34865215  3.93177600  0.62145700
C 0  -2.48043912  0.85593900 -4.16481800
H 0  -2.58813796  1.05634400 -5.22425100
C 0  -3.02022935  2.77043900 -1.04890800
H 0  -3.42626988  3.60329000 -1.62464100
C 0   2.73782596  1.82886600  3.25283500
H 0   3.05745404  2.80743600  3.60182900
C 0  -1.36501823  0.82120100  3.60110800
H 0  -0.94050969  0.30660300  4.46211700
C 0  -1.97827027 -0.65537200 -2.36124400
H 0  -1.70572188 -1.65615300 -2.05310600
C 0   2.47868204  0.83046500  4.16983900
H 0   2.58550754  1.02450400  5.23054200
C 0   2.41111558  2.76528700 -2.58776500
H 0   2.81140719  3.77493500 -2.66614300
C 0   2.11547908 -0.44137400  3.70613100
H 0   1.94541231 -1.25390600  4.40380800
C 0   1.88032673  2.14556700 -3.70912400
H 0   1.86946235  2.66123700 -4.66140000
C 0   2.97645404  2.96658800 -0.26502200
H 0   3.35722881  3.93248100 -0.59768800
C 0  -2.11785923 -0.41881300 -3.70888900
H 0  -1.94904692 -1.22739400 -4.41143000
C 0   3.02447873  2.76231300  1.06583900
H 0   3.43187862  3.59095800  1.64672700
C 0   1.40571138  0.19544800 -2.38328500
H 0   1.01856462 -0.81642800 -2.34013300
C 0   1.36307527  0.84503700 -3.59505800
H 0   0.93597058  0.33701200 -4.45876200

