%chk=opt.chk
%mem=16GB
%nprocshared=28
#p opt UM062X/6-311+G** nosymm int=superfine

Title Card Required

1 2
C -1 -0.97013696  0.00000000 -0.00000000
C -1  0.97013696 -0.00000000 -0.00000000
H 0  1.01030524 -0.93683200  0.54223100
H 0 -1.00928932 -0.93793100 -0.54043100
H 0  1.00988840  0.93803600  0.54018500
H 0  1.00938656 -0.00115200 -1.08249500
H 0 -1.01026308  0.93691100 -0.54207800
H 0 -1.00981768  0.00091900  1.08245700

