%chk=opt.chk
%mem=24GB
%nprocshared=28
#p opt UM062X/6-311+G** nosymm int=superfine SCF=(Tight,MaxCycle=200)

Title Card Required

1 2
C -1  -0.94163365  0.00000000  0.00000000
C -1   0.94163365  0.00000000 -0.00000000
C 0   0.00000699 -2.15641600  0.00035500
C 0   0.00001320 -3.53176600  0.00057200
C 0  -0.87789706 -4.32427500  0.27970800
C 0  -0.94088591 -1.48110800  0.26120100
C 0   0.51104188 -5.72058700 -0.16372700
H 0   0.98547162 -6.59818100 -0.31972100
C 0  -1.14291035  0.83924400  1.16049800
C 0  -0.51122280 -5.72054000  0.16439000
H 0  -0.98572941 -6.59809200  0.32024000
C 0   0.87783805 -4.32435700 -0.27879900
C 0   0.94086572 -1.48115600 -0.26092300
C 0   1.29772539  2.25440400 -1.16868900
C 0  -1.14237148  0.30603300 -1.40736600
C 0  -1.46591746  2.91080500  2.39776700
H 0  -1.58990661  3.98261000  2.37971100
C 0  -1.78792369 -3.66420300  0.57630300
H 0  -2.49850998 -4.19797000  0.80625700
C 0  -1.20629908  1.60942100 -1.98926600
C 0   1.81001972 -2.23542700 -0.55533500
H 0   2.54337833 -1.73401000 -0.73946300
C 0   1.14251668  0.30612000  1.40730900
C 0   1.20633635  1.60950600  1.98921100
C 0   1.78780101 -3.66436000 -0.57587200
H 0   2.49831275 -4.19817900 -0.80608800
C 0  -1.29826581  2.25426600  1.16871200
C 0  -1.13668384  0.19487900  2.42776200
H 0  -0.99372939 -0.86727000  2.47572600
C 0   1.24666080 -0.78817100  2.31078900
H 0   1.23182944 -1.80013300  1.93766400
C 0  -1.47747367  2.24305700  3.60206400
H 0  -1.61273096  2.78230300  4.52521400
C 0  -1.81010591 -2.23527500  0.55555000
H 0  -2.54348315 -1.73379100  0.73935900
C 0  -1.31880346  1.73853600 -3.38703700
H 0  -1.35027304  2.73906600 -3.80157800
C 0   1.14285833  0.83928600 -1.16052200
C 0  -1.26250391  3.13328800  0.02989000
H 0  -1.30040188  4.18685100  0.28738700
C 0  -1.41223772  0.65295200 -4.22298900
H 0  -1.51337534  0.79238800 -5.28919700
C 0  -1.19993047  2.86449500 -1.28690100
H 0  -1.19024167  3.73278800 -1.93870900
C 0   1.31937416  1.73861300  3.38691600
H 0   1.35081191  2.73914300  3.80146400
C 0  -1.30182981  0.86412900  3.61171400
H 0  -1.28749306  0.31624300  4.54594900
C 0  -1.24614755 -0.78825600 -2.31093200
H 0  -1.23132784 -1.80022700 -1.93784700
C 0   1.41328595  0.65303000  4.22277600
H 0   1.51482113  0.79245400  5.28892300
C 0   1.46534831  2.91106900 -2.39767900
H 0   1.58892748  3.98295200 -2.37956000
C 0   1.38914936 -0.62738900  3.66585200
H 0   1.47994440 -1.50257400  4.29316200
C 0   1.47735798  2.24335300 -3.60198400
H 0   1.61262071  2.78267900 -4.52508500
C 0   1.26134153  3.13343700 -0.02990000
H 0   1.29848167  4.18703300 -0.28744400
C 0  -1.38820984 -0.62746600 -3.66607200
H 0  -1.47872612 -1.50265200 -4.29345000
C 0   1.19913226  2.86460000  1.28690700
H 0   1.18899000  3.73287300  1.93872900
C 0   1.13690513  0.19499300 -2.42782300
H 0   0.99412151 -0.86718000 -2.47590300
C 0   1.30208061  0.86435600 -3.61171000
H 0   1.28802572  0.31649400 -4.54596700

