%chk=opt.chk
%mem=4GB
%nprocshared=8
#p opt UM062X/6-311+G** nosymm int=superfine

Title Card Required

0 1
P  0.938495    0.000000    0.000000
P -0.938495    0.000000    0.000000
H -1.95293097 -0.88323305  0.00000000
H  1.95293097  0.88323283  0.00062000
H -1.95266011  0.88337061 -0.00028595
H  1.95266011 -0.88337020 -0.00090605

