%chk=opt.chk
%mem=4GB
%nprocshared=8
#p opt UM062X/6-311+G** nosymm int=superfine

Title Card Required

0 1
C -0.839153   -0.049586   -0.033807
S  0.838941   -0.603635   -0.293300
H  1.479119    0.452257    0.266210
H -1.507386   -0.807378   -0.436558
H -0.972051    0.911686   -0.542844
H -0.998683    0.096554    1.040247

