%chk=opt.chk
%mem=24GB
%nprocshared=28
#p opt UM062X/6-311+G** nosymm int=superfine SCF=(Tight,MaxCycle=200)

Title Card Required

1 2
C -1  -1.05577106  0.00000000  0.00000000
C -1   1.05577106  0.00000000 -0.00000000
C 0   0.00000784 -2.15641600  0.00035500
C 0   0.00001480 -3.53176600  0.00057200
C 0  -0.98430882 -4.32427500  0.27970800
C 0  -1.05493268 -1.48110800  0.26120100
C 0   0.57298635 -5.72058700 -0.16372700
H 0   1.10492273 -6.59818100 -0.31972100
C 0  -1.28144494  0.83924400  1.16049800
C 0  -0.57318920 -5.72054000  0.16439000
H 0  -1.10521176 -6.59809200  0.32024000
C 0   0.98424266 -4.32435700 -0.27879900
C 0   1.05491005 -1.48115600 -0.26092300
C 0   1.45502544  2.25440400 -1.16868900
C 0  -1.28084075  0.30603300 -1.40736600
C 0  -1.64360442  2.91080500  2.39776700
H 0  -1.78262256  3.98261000  2.37971100
C 0  -2.00464172 -3.66420300  0.57630300
H 0  -2.80135967 -4.19797000  0.80625700
C 0  -1.35251715  1.60942100 -1.98926600
C 0   2.02941605 -2.23542700 -0.55533500
H 0   2.85166661 -1.73401000 -0.73946300
C 0   1.28100355  0.30612000  1.40730900
C 0   1.35255894  1.60950600  1.98921100
C 0   2.00450416 -3.66436000 -0.57587200
H 0   2.80113854 -4.19817900 -0.80608800
C 0  -1.45563136  2.25426600  1.16871200
C 0  -1.27446369  0.19487900  2.42776200
H 0  -1.11418144 -0.86727000  2.47572600
C 0   1.39777120 -0.78817100  2.31078900
H 0   1.38114209 -1.80013300  1.93766400
C 0  -1.65656139  2.24305700  3.60206400
H 0  -1.80821351  2.78230300  4.52521400
C 0  -2.02951268 -2.23527500  0.55555000
H 0  -2.85178414 -1.73379100  0.73935900
C 0  -1.47865842  1.73853600 -3.38703700
H 0  -1.51394249  2.73906600 -3.80157800
C 0   1.28138661  0.83928600 -1.16052200
C 0  -1.41553468  3.13328800  0.02989000
H 0  -1.45802635  4.18685100  0.28738700
C 0  -1.58341805  0.65295200 -4.22298900
H 0  -1.69681478  0.79238800 -5.28919700
C 0  -1.34537659  2.86449500 -1.28690100
H 0  -1.33451339  3.73278800 -1.93870900
C 0   1.47929831  1.73861300  3.38691600
H 0   1.51454668  2.73914300  3.80146400
C 0  -1.45962736  0.86412900  3.61171400
H 0  -1.44355282  0.31624300  4.54594900
C 0  -1.39719574 -0.78825600 -2.31093200
H 0  -1.38057969 -1.80022700 -1.93784700
C 0   1.58459334  0.65303000  4.22277600
H 0   1.69843581  0.79245400  5.28892300
C 0   1.64296628  2.91106900 -2.39767900
H 0   1.78152475  3.98295200 -2.37956000
C 0   1.55753111 -0.62738900  3.66585200
H 0   1.65933160 -1.50257400  4.29316200
C 0   1.65643167  2.24335300 -3.60198400
H 0   1.80808988  2.78267900 -4.52508500
C 0   1.41423141  3.13343700 -0.02990000
H 0   1.45587339  4.18703300 -0.28744400
C 0  -1.55647769 -0.62746600 -3.66607200
H 0  -1.65796565 -1.50265200 -4.29345000
C 0   1.34448162  2.86460000  1.28690700
H 0   1.33311000  3.73287300  1.93872900
C 0   1.27471181  0.19499300 -2.42782300
H 0   1.11462108 -0.86718000 -2.47590300
C 0   1.45990856  0.86435600 -3.61171000
H 0   1.44415005  0.31649400 -4.54596700

