%chk=opt.chk
%mem=24GB
%nprocshared=28
#p opt UM062X/6-311+G** nosymm int=superfine 

Title Card Required

1 2
C -1  -1.75476078  0.00000000  0.00000000
C -1   1.75476078  0.00000000 -0.00000000
C 0  -0.00000963 -2.05545100 -0.00218400
C 0  -0.00001925 -3.45663400 -0.00371000
C 0  -1.21171043 -4.28964700  0.19341900
C 0  -1.41429785 -1.46623300  0.16419700
C 0   0.71080844 -5.68273300 -0.12500700
H 0   1.38735123 -6.55103000 -0.24207000
C 0  -1.77658954  0.76445700  1.22074200
C 0  -0.71088224 -5.68298300  0.11278600
H 0  -1.38741219 -6.55152100  0.22810600
C 0   1.21165696 -4.28923100 -0.20263200
C 0   1.41427646 -1.46588400 -0.16727800
C 0   1.90990122  2.19168900 -1.33769900
C 0  -1.87534784  0.40953900 -1.37420600
C 0  -1.96960221  2.76908500  2.62285300
H 0  -2.08927372  3.84514500  2.68868800
C 0  -2.51109527 -3.70308600  0.41334100
H 0  -3.47586342 -4.27951100  0.58257000
C 0  -1.86705337  1.75683100 -1.86867700
C 0   2.57886506 -2.28649400 -0.38846300
H 0   3.61599999 -1.81328700 -0.50709000
C 0   1.87538207  0.40665600  1.37505900
C 0   1.86709294  1.75290300  1.87236300
C 0   2.51108030 -3.70220600 -0.42113800
H 0   3.47585807 -4.27827200 -0.59153800
C 0  -1.91013438  2.18886500  1.34229400
C 0  -1.62166088  0.04225000  2.44254900
H 0  -1.47020403 -1.02702500  2.40771200
C 0   1.95111157 -0.62790300  2.36195200
H 0   1.98860410 -1.65906400  2.04521500
C 0  -1.87314454  2.02407800  3.78017400
H 0  -1.93287227  2.50708000  4.74815100
C 0  -2.57887148 -2.28730400  0.38372300
H 0  -3.61599464 -1.81434400  0.50342700
C 0  -1.89036133  1.98025300 -3.26008800
H 0  -1.86458267  3.00602900 -3.60919500
C 0   1.77654890  0.76701800 -1.21914100
C 0  -1.91221576  3.13594400  0.25924100
H 0  -1.94159885  4.17143300  0.58431100
C 0  -1.96360409  0.95518900 -4.17545700
H 0  -1.99889974  1.17003200 -5.23669600
C 0  -1.85907976  2.95542500 -1.07578900
H 0  -1.84110464  3.86784300 -1.66423700
C 0   1.89061589  1.97339900  3.26423800
H 0   1.86487252  2.99843800  3.61550800
C 0  -1.67559477  0.64359400  3.67979400
H 0  -1.56235990  0.03773200  4.57151700
C 0  -1.95099926 -0.62294000 -2.36327900
H 0  -1.98855704 -1.65476100 -2.04870200
C 0   1.96400624  0.94641300  4.17744200
H 0   1.99948479  1.15903100  5.23912300
C 0   1.96937118  2.77460400 -2.61703400
H 0   2.08888868  3.85081600 -2.68059700
C 0   2.01255916 -0.37237300  3.71002300
H 0   2.09384932 -1.19837700  4.40661800
C 0   1.87311459  2.03201600 -3.77592100
H 0   1.93286692  2.51705500 -4.74287700
C 0   1.91173873  3.13649300 -0.25265600
H 0   1.94080951  4.17267000 -0.57555100
C 0  -2.01227358 -0.36457400 -3.71081600
H 0  -2.09353273 -1.18910900 -4.40915300
C 0   1.85877493  2.95316000  1.08199600
H 0   1.84064259  3.86433700  1.67236000
C 0   1.62173896  0.04736400 -2.44246500
H 0   1.47037409 -1.02199400 -2.40988200
C 0   1.67570280  0.65130400 -3.67844300
H 0   1.56258986  0.04729700 -4.57143800

