%chk=force.chk 
%mem=4GB
%nprocshared=8
#p UM062X/6-311+G** force int=superfine  pop=saveNBO 

Title Card Required

-1 2
B -1.09067151  0.00000000 -0.00000000
B  1.09067151 -0.00000000  0.00000000
H  1.29812979 -1.18848599 -0.00000000
H -1.29787704 -0.59427325  1.02929244
H  1.29806404  0.59428747 -1.02924984
H  1.29778970  0.59426200  1.02931566
H -1.29813879  1.18848467  0.00000770
H -1.29796670 -0.59427912 -1.02927339

