%chk=opt.chk
%mem=4GB
%nprocshared=8
#p opt UM062X/6-311+G** nosymm int=superfine

Title Card Required

-1 2
B -1 -1.69067151  0.00000000 -0.00000000
B -1  1.69067151 -0.00000000  0.00000000
H  0  1.89812979 -1.18848599 -0.00000000
H  0 -1.89787704 -0.59427325  1.02929244
H  0  1.89806404  0.59428747 -1.02924984
H  0  1.89778970  0.59426200  1.02931566
H  0 -1.89813879  1.18848467  0.00000770
H  0 -1.89796670 -0.59427912 -1.02927339

