%chk=opt.chk
%mem=24GB
%nprocshared=28
#p opt UM062X/6-311+G** nosymm int=superfine SCF=(Tight,MaxCycle=200)

Title Card Required

1 2
C -1  -1.18417565  0.00000000  0.00000000
C -1   1.18417565  0.00000000 -0.00000000
C 0   0.00000879 -2.15641600  0.00035500
C 0   0.00001660 -3.53176600  0.00057200
C 0  -1.10402206 -4.32427500  0.27970800
C 0  -1.18323531 -1.48110800  0.26120100
C 0   0.64267388 -5.72058700 -0.16372700
H 0   1.23930522 -6.59818100 -0.31972100
C 0  -1.43729635  0.83924400  1.16049800
C 0  -0.64290140 -5.72054000  0.16439000
H 0  -1.23962941 -6.59809200  0.32024000
C 0   1.10394785 -4.32435700 -0.27879900
C 0   1.18320992 -1.48115600 -0.26092300
C 0   1.63198799  2.25440400 -1.16868900
C 0  -1.43661868  0.30603300 -1.40736600
C 0  -1.84350226  2.91080500  2.39776700
H 0  -1.99942801  3.98261000  2.37971100
C 0  -2.24844949 -3.66420300  0.57630300
H 0  -3.14206558 -4.19797000  0.80625700
C 0  -1.51701248  1.60942100 -1.98926600
C 0   2.27623692 -2.23542700 -0.55533500
H 0   3.19849093 -1.73401000 -0.73946300
C 0   1.43680128  0.30612000  1.40730900
C 0   1.51705935  1.60950600  1.98921100
C 0   2.24829521 -3.66436000 -0.57587200
H 0   3.14181755 -4.19817900 -0.80608800
C 0  -1.63266761  2.25426600  1.16871200
C 0  -1.42946604  0.19487900  2.42776200
H 0  -1.24968999 -0.86727000  2.47572600
C 0   1.56777040 -0.78817100  2.31078900
H 0   1.54911884 -1.80013300  1.93766400
C 0  -1.85803507  2.24305700  3.60206400
H 0  -2.02813136  2.78230300  4.52521400
C 0  -2.27634531 -2.23527500  0.55555000
H 0  -3.19862275 -1.73379100  0.73935900
C 0  -1.65849526  1.73853600 -3.38703700
H 0  -1.69807064  2.73906600 -3.80157800
C 0   1.43723093  0.83928600 -1.16052200
C 0  -1.58769431  3.13328800  0.02989000
H 0  -1.63535388  4.18685100  0.28738700
C 0  -1.77599592  0.65295200 -4.22298900
H 0  -1.90318414  0.79238800 -5.28919700
C 0  -1.50900347  2.86449500 -1.28690100
H 0  -1.49681907  3.73278800 -1.93870900
C 0   1.65921296  1.73861300  3.38691600
H 0   1.69874831  2.73914300  3.80146400
C 0  -1.63714961  0.86412900  3.61171400
H 0  -1.61912006  0.31624300  4.54594900
C 0  -1.56712495 -0.78825600 -2.31093200
H 0  -1.54848804 -1.80022700 -1.93784700
C 0   1.77731415  0.65303000  4.22277600
H 0   1.90500233  0.79245400  5.28892300
C 0   1.84278651  2.91106900 -2.39767900
H 0   1.99819668  3.98295200 -2.37956000
C 0   1.74696056 -0.62738900  3.66585200
H 0   1.86114220 -1.50257400  4.29316200
C 0   1.85788958  2.24335300 -3.60198400
H 0   2.02799271  2.78267900 -4.52508500
C 0   1.58623253  3.13343700 -0.02990000
H 0   1.63293907  4.18703300 -0.28744400
C 0  -1.74577904 -0.62746600 -3.66607200
H 0  -1.85961012 -1.50265200 -4.29345000
C 0   1.50799966  2.86460000  1.28690700
H 0   1.49524500  3.73287300  1.93872900
C 0   1.42974433  0.19499300 -2.42782300
H 0   1.25018311 -0.86718000 -2.47590300
C 0   1.63746501  0.86435600 -3.61171000
H 0   1.61978992  0.31649400 -4.54596700

