%chk=opt.chk
%mem=24GB
%nprocshared=28
#p opt UM062X/6-311+G** nosymm int=superfine 

Title Card Required

1 2
C -1  -1.99727769  0.00000000 -0.00000000
C -1   1.99727769  0.00000000 -0.00000000
C 0  -0.00015400 -1.98856500 -0.00626500
C 0   0.00001508 -3.39883100 -0.01071700
C 0  -1.20563477 -4.24606900  0.22573300
C 0  -1.45339277 -1.42477300  0.18087700
C 0   0.70924431 -5.63715200 -0.16281300
H 0   1.38943215 -6.50179000 -0.30831200
C 0  -2.01591923  0.78920500  1.20146600
C 0  -0.70882323 -5.63816300  0.12703300
H 0  -1.38889369 -6.50380800  0.26692800
C 0   1.20580600 -4.24438900 -0.25267800
C 0   1.45298892 -1.42348500 -0.19007300
C 0   2.53548508  2.14234500 -1.32746000
C 0  -2.27426446  0.35445900 -1.36980700
C 0  -2.49568738  2.75022300  2.60467900
H 0  -2.90800031  3.76040100  2.68886500
C 0  -2.51066092 -3.68227900  0.49339100
H 0  -3.46505815 -4.27011000  0.70123600
C 0  -2.72265431  1.63923000 -1.85430600
C 0   2.59516815 -2.26839800 -0.46237000
H 0   3.64548477 -1.81229400 -0.59929500
C 0   2.27428815  0.34580200  1.37186900
C 0   2.72396600  1.62727300  1.86419900
C 0   2.51067600 -3.67874100 -0.51698800
H 0   3.46514215 -4.26508000 -0.72872400
C 0  -2.53163615  2.13502500  1.34065100
C 0  -1.46009446  0.17930900  2.38518300
H 0  -1.06129800 -0.83322500  2.33620100
C 0   2.04996292 -0.66985100  2.35708400
H 0   1.76665462 -1.66852200  2.04270600
C 0  -1.94816677  2.12232200  3.72278700
H 0  -1.93640031  2.63208100  4.67823000
C 0  -2.59540831 -2.27164700  0.44763000
H 0  -3.64580569 -1.81652600  0.58725300
C 0  -2.83906431  1.84911600 -3.24158500
H 0  -3.16975185  2.83007500 -3.58446800
C 0   2.01645015  0.79678700 -1.19631800
C 0  -3.08059985  2.96691100  0.28298800
H 0  -3.47267631  3.93177600  0.62145700
C 0  -2.57230723  0.85593900 -4.16481800
H 0  -2.68399492  1.05634400 -5.22425100
C 0  -3.13208969  2.77043900 -1.04890800
H 0  -3.55316877  3.60329000 -1.62464100
C 0   2.83922692  1.82886600  3.25283500
H 0   3.17069308  2.80743600  3.60182900
C 0  -1.41557446  0.82120100  3.60110800
H 0  -0.97534338  0.30660300  4.46211700
C 0  -2.05153954 -0.65537200 -2.36124400
H 0  -1.76889677 -1.65615300 -2.05310600
C 0   2.57048508  0.83046500  4.16983900
H 0   2.68126708  1.02450400  5.23054200
C 0   2.50041615  2.76528700 -2.58776500
H 0   2.91553338  3.77493500 -2.66614300
C 0   2.19383015 -0.44137400  3.70613100
H 0   2.01746462 -1.25390600  4.40380800
C 0   1.94996846  2.14556700 -3.70912400
H 0   1.93870169  2.66123700 -4.66140000
C 0   3.08669308  2.96658800 -0.26502200
H 0   3.48157062  3.93248100 -0.59768800
C 0  -2.19629846 -0.41881300 -3.70888900
H 0  -2.02123385 -1.22739400 -4.41143000
C 0   3.13649646  2.76231300  1.06583900
H 0   3.55898523  3.59095800  1.64672700
C 0   1.45777477  0.19544800 -2.38328500
H 0   1.05628923 -0.81642800 -2.34013300
C 0   1.41355954  0.84503700 -3.59505800
H 0   0.97063615  0.33701200 -4.45876200

