%chk=opt.chk
%mem=24GB
%nprocshared=28
#p opt UM062X/6-311+G** nosymm int=superfine 

Title Card Required

1 2
C -1  -1.96874515  0.00000000 -0.00000000
C -1   1.96874515  0.00000000 -0.00000000
C 0  -0.00015180 -1.98856500 -0.00626500
C 0   0.00001486 -3.39883100 -0.01071700
C 0  -1.18841142 -4.24606900  0.22573300
C 0  -1.43263002 -1.42477300  0.18087700
C 0   0.69911225 -5.63715200 -0.16281300
H 0   1.36958312 -6.50179000 -0.30831200
C 0  -1.98712038  0.78920500  1.20146600
C 0  -0.69869718 -5.63816300  0.12703300
H 0  -1.36905235 -6.50380800  0.26692800
C 0   1.18858020 -4.24438900 -0.25267800
C 0   1.43223194 -1.42348500 -0.19007300
C 0   2.49926386  2.14234500 -1.32746000
C 0  -2.24177497  0.35445900 -1.36980700
C 0  -2.46003471  2.75022300  2.60467900
H 0  -2.86645745  3.76040100  2.68886500
C 0  -2.47479434 -3.68227900  0.49339100
H 0  -3.41555732 -4.27011000  0.70123600
C 0  -2.68375925  1.63923000 -1.85430600
C 0   2.55809432 -2.26839800 -0.46237000
H 0   3.59340642 -1.81229400 -0.59929500
C 0   2.24179832  0.34580200  1.37186900
C 0   2.68505220  1.62727300  1.86419900
C 0   2.47480920 -3.67874100 -0.51698800
H 0   3.41564012 -4.26508000 -0.72872400
C 0  -2.49546992  2.13502500  1.34065100
C 0  -1.43923597  0.17930900  2.38518300
H 0  -1.04613660 -0.83322500  2.33620100
C 0   2.02067774 -0.66985100  2.35708400
H 0   1.74141669 -1.66852200  2.04270600
C 0  -1.92033582  2.12232200  3.72278700
H 0  -1.90873745  2.63208100  4.67823000
C 0  -2.55833105 -2.27164700  0.44763000
H 0  -3.59372275 -1.81652600  0.58725300
C 0  -2.79850625  1.84911600 -3.24158500
H 0  -3.12446968  2.83007500 -3.58446800
C 0   1.98764372  0.79678700 -1.19631800
C 0  -3.03659128  2.96691100  0.28298800
H 0  -3.42306665  3.93177600  0.62145700
C 0  -2.53555998  0.85593900 -4.16481800
H 0  -2.64565214  1.05634400 -5.22425100
C 0  -3.08734555  2.77043900 -1.04890800
H 0  -3.50240922  3.60329000 -1.62464100
C 0   2.79866654  1.82886600  3.25283500
H 0   3.12539746  2.80743600  3.60182900
C 0  -1.39535197  0.82120100  3.60110800
H 0  -0.96140991  0.30660300  4.46211700
C 0  -2.02223183 -0.65537200 -2.36124400
H 0  -1.74362682 -1.65615300 -2.05310600
C 0   2.53376386  0.83046500  4.16983900
H 0   2.64296326  1.02450400  5.23054200
C 0   2.46469592  2.76528700 -2.58776500
H 0   2.87388291  3.77493500 -2.66614300
C 0   2.16248972 -0.44137400  3.70613100
H 0   1.98864369 -1.25390600  4.40380800
C 0   1.92211177  2.14556700 -3.70912400
H 0   1.91100595  2.66123700 -4.66140000
C 0   3.04259746  2.96658800 -0.26502200
H 0   3.43183389  3.93248100 -0.59768800
C 0  -2.16492277 -0.41881300 -3.70888900
H 0  -1.99235908 -1.22739400 -4.41143000
C 0   3.09168937  2.76231300  1.06583900
H 0   3.50814258  3.59095800  1.64672700
C 0   1.43694942  0.19544800 -2.38328500
H 0   1.04119938 -0.81642800 -2.34013300
C 0   1.39336583  0.84503700 -3.59505800
H 0   0.95676992  0.33701200 -4.45876200

