%chk=opt.chk
%mem=32GB
%nprocshared=16
#p opt UM062X/6-311+G** nosymm int=superfine

Title Card Required

0 1
C -1 -0.78163709  0.00000000  0.00000000
N -1  0.78163709  0.00000000 -0.00000000
H  0 -1.40329661 -0.90066143 -0.00000000
H  0  1.14286972 -0.95581883 -0.00012569
H  0 -1.30816940  0.95471893 -0.00010966

