%chk=opt.chk
%mem=32GB
%nprocshared=16
#p opt UM062X/6-311+G** nosymm int=superfine

Title Card Required

0 1
C -1  -1.731637   0.000000   0.000000
N -1  1.731637   0.000000   0.000000
H  0  -2.433196   -0.856186   0.024172
H  0  0.689713   -0.012510   -0.000514
H  0  -2.406973   0.877660   -0.022105

