%chk=opt.chk
%mem=32GB
%nprocshared=16
#p opt UM062X/6-311+G** nosymm int=superfine

Title Card Required

0 1
C -1  -1.831752   0.000000   0.000000
N -1  1.831752   0.000000   0.000000
H  0  -2.522909   -0.847092   -0.169763
H  0  0.789713   0.000069   -0.004314
H  0  -2.519662   0.848923   0.173911

