%oldchk=../00265/opt.chk
%chk=opt.chk
%mem=4GB
%nprocshared=8
#p opt UM062X/6-311+G** nosymm int=superfine SCF=(MaxCycle=200,NoVarAcc,noincfock) guess=read

Title Card Required

0 1
C -1  -1.931637   0.000000   0.000000
N -1  1.931637   0.000000   0.000000
H  0  -2.920286   -0.495498   -0.028409
H  0  0.905692   -0.159140   -0.006357
H  0  -2.194175   1.071096   -0.091274

