%chk=opt.chk
%mem=32GB
%nprocshared=16
#p opt UM062X/6-311+G** nosymm int=superfine

Title Card Required

0 1
C -1  -2.006637   0.000000   0.000000
N -1  2.006637   0.000000   0.000000
H  0  -2.699985   -0.862656   0.025982
H  0  0.965485   -0.000657   0.000013
H  0  -2.696292   0.865615   -0.026213

