%chk=opt.chk
%mem=32GB
%nprocshared=16
#p opt UM062X/6-311+G** nosymm int=superfine

Title Card Required

0 1
C -1  -2.026957   -0.000000   -0.000000
N -1  2.026957   -0.000000   0.000000
H  0  -2.733574   -0.849058   -0.013529
H  0  0.989590   -0.105115   -0.000395
H  0  -2.705299   0.873008   -0.045461

