%chk=opt.chk
%mem=32GB
%nprocshared=16
#p opt UM062X/6-311+G** nosymm int=superfine

Title Card Required

0 1
C -1  -2.105039   -0.000000   -0.000000
N -1  2.105039   0.000000   -0.000000
H  0  -2.813597   -0.850082   -0.013554
H  0  1.064844   -0.008398   0.000202
H  0  -2.783202   0.874050   0.000744

