%chk=opt.chk
%mem=24GB
%nprocshared=28
#p opt UM062X/6-311+G** nosymm int=superfine 

Title Card Required

1 2
C -1  -1.71196174  0.00000000  0.00000000
C -1   1.71196174  0.00000000 -0.00000000
C 0  -0.00000939 -2.05545100 -0.00218400
C 0  -0.00001878 -3.45663400 -0.00371000
C 0  -1.18215652 -4.28964700  0.19341900
C 0  -1.37980278 -1.46623300  0.16419700
C 0   0.69347165 -5.68273300 -0.12500700
H 0   1.35351339 -6.55103000 -0.24207000
C 0  -1.73325809  0.76445700  1.22074200
C 0  -0.69354365 -5.68298300  0.11278600
H 0  -1.35357287 -6.55152100  0.22810600
C 0   1.18210435 -4.28923100 -0.20263200
C 0   1.37978191 -1.46588400 -0.16727800
C 0   1.86331826  2.19168900 -1.33769900
C 0  -1.82960765  0.40953900 -1.37420600
C 0  -1.92156313  2.76908500  2.62285300
H 0  -2.03831583  3.84514500  2.68868800
C 0  -2.44984904 -3.70308600  0.41334100
H 0  -3.39108626 -4.27951100  0.58257000
C 0  -1.82151548  1.75683100 -1.86867700
C 0   2.51596591 -2.28649400 -0.38846300
H 0   3.52780487 -1.81328700 -0.50709000
C 0   1.82964104  0.40665600  1.37505900
C 0   1.82155409  1.75290300  1.87236300
C 0   2.44983443 -3.70220600 -0.42113800
H 0   3.39108104 -4.27827200 -0.59153800
C 0  -1.86354574  2.18886500  1.34229400
C 0  -1.58210817  0.04225000  2.44254900
H 0  -1.43434539 -1.02702500  2.40771200
C 0   1.90352348 -0.62790300  2.36195200
H 0   1.94010157 -1.65906400  2.04521500
C 0  -1.82745809  2.02407800  3.78017400
H 0  -1.88572904  2.50708000  4.74815100
C 0  -2.51597217 -2.28730400  0.38372300
H 0  -3.52779965 -1.81434400  0.50342700
C 0  -1.84425496  1.98025300 -3.26008800
H 0  -1.81910504  3.00602900 -3.60919500
C 0   1.73321843  0.76701800 -1.21914100
C 0  -1.86557635  3.13594400  0.25924100
H 0  -1.89424278  4.17143300  0.58431100
C 0  -1.91571130  0.95518900 -4.17545700
H 0  -1.95014609  1.17003200 -5.23669600
C 0  -1.81373635  2.95542500 -1.07578900
H 0  -1.79619965  3.86784300 -1.66423700
C 0   1.84450330  1.97339900  3.26423800
H 0   1.81938783  2.99843800  3.61550800
C 0  -1.63472661  0.64359400  3.67979400
H 0  -1.52425357  0.03773200  4.57151700
C 0  -1.90341391 -0.62294000 -2.36327900
H 0  -1.94005565 -1.65476100 -2.04870200
C 0   1.91610365  0.94641300  4.17744200
H 0   1.95071687  1.15903100  5.23912300
C 0   1.92133774  2.77460400 -2.61703400
H 0   2.03794017  3.85081600 -2.68059700
C 0   1.96347235 -0.37237300  3.71002300
H 0   2.04277983 -1.19837700  4.40661800
C 0   1.82742887  2.03201600 -3.77592100
H 0   1.88572383  2.51705500 -4.74287700
C 0   1.86511096  3.13649300 -0.25265600
H 0   1.89347270  4.17267000 -0.57555100
C 0  -1.96319374 -0.36457400 -3.71081600
H 0  -2.04247096 -1.18910900 -4.40915300
C 0   1.81343896  2.95316000  1.08199600
H 0   1.79574887  3.86433700  1.67236000
C 0   1.58218435  0.04736400 -2.44246500
H 0   1.43451130 -1.02199400 -2.40988200
C 0   1.63483200  0.65130400 -3.67844300
H 0   1.52447791  0.04729700 -4.57143800

