%chk=opt.chk
%mem=24GB
%nprocshared=28
#p opt UM062X/6-311+G** nosymm int=superfine SCF=(Tight,MaxCycle=200)

Title Card Required

1 2
C -1  -1.09857259  0.00000000  0.00000000
C -1   1.09857259  0.00000000 -0.00000000
C 0   0.00000815 -2.15641600  0.00035500
C 0   0.00001540 -3.53176600  0.00057200
C 0  -1.02421324 -4.32427500  0.27970800
C 0  -1.09770022 -1.48110800  0.26120100
C 0   0.59621553 -5.72058700 -0.16372700
H 0   1.14971689 -6.59818100 -0.31972100
C 0  -1.33339541  0.83924400  1.16049800
C 0  -0.59642660 -5.72054000  0.16439000
H 0  -1.15001765 -6.59809200  0.32024000
C 0   1.02414439 -4.32435700 -0.27879900
C 0   1.09767667 -1.48115600 -0.26092300
C 0   1.51401295  2.25440400 -1.16868900
C 0  -1.33276673  0.30603300 -1.40736600
C 0  -1.71023704  2.91080500  2.39776700
H 0  -1.85489105  3.98261000  2.37971100
C 0  -2.08591098 -3.66420300  0.57630300
H 0  -2.91492831 -4.19797000  0.80625700
C 0  -1.40734893  1.60942100 -1.98926600
C 0   2.11168967 -2.23542700 -0.55533500
H 0   2.96727472 -1.73401000 -0.73946300
C 0   1.33293613  0.30612000  1.40730900
C 0   1.40739241  1.60950600  1.98921100
C 0   2.08576785 -3.66436000 -0.57587200
H 0   2.91469821 -4.19817900 -0.80608800
C 0  -1.51464345  2.25426600  1.16871200
C 0  -1.32613114  0.19487900  2.42776200
H 0  -1.15935095 -0.86727000  2.47572600
C 0   1.45443760 -0.78817100  2.31078900
H 0   1.43713434 -1.80013300  1.93766400
C 0  -1.72371928  2.24305700  3.60206400
H 0  -1.88151946  2.78230300  4.52521400
C 0  -2.11179022 -2.23527500  0.55555000
H 0  -2.96739701 -1.73379100  0.73935900
C 0  -1.53860404  1.73853600 -3.38703700
H 0  -1.57531854  2.73906600 -3.80157800
C 0   1.33333472  0.83928600 -1.16052200
C 0  -1.47292122  3.13328800  0.02989000
H 0  -1.51713553  4.18685100  0.28738700
C 0  -1.64761067  0.65295200 -4.22298900
H 0  -1.76560456  0.79238800 -5.28919700
C 0  -1.39991888  2.86449500 -1.28690100
H 0  -1.38861528  3.73278800 -1.93870900
C 0   1.53926986  1.73861300  3.38691600
H 0   1.57594722  2.73914300  3.80146400
C 0  -1.51880145  0.86412900  3.61171400
H 0  -1.50207524  0.31624300  4.54594900
C 0  -1.45383881 -0.78825600 -2.31093200
H 0  -1.43654914 -1.80022700 -1.93784700
C 0   1.64883361  0.65303000  4.22277600
H 0   1.76729132  0.79245400  5.28892300
C 0   1.70957302  2.91106900 -2.39767900
H 0   1.85374873  3.98295200 -2.37956000
C 0   1.62067426 -0.62738900  3.66585200
H 0   1.72660180 -1.50257400  4.29316200
C 0   1.72358431  2.24335300 -3.60198400
H 0   1.88139082  2.78267900 -4.52508500
C 0   1.47156512  3.13343700 -0.02990000
H 0   1.51489528  4.18703300 -0.28744400
C 0  -1.61957814 -0.62746600 -3.66607200
H 0  -1.72518047 -1.50265200 -4.29345000
C 0   1.39898764  2.86460000  1.28690700
H 0   1.38715500  3.73287300  1.93872900
C 0   1.32638932  0.19499300 -2.42782300
H 0   1.15980842 -0.86718000 -2.47590300
C 0   1.51909405  0.86435600 -3.61171000
H 0   1.50269667  0.31649400 -4.54596700

