%chk=opt.chk
%mem=8GB
%nprocshared=24
#p opt UM062X/6-311+G** nosymm int=superfine 

Title Card Required

0 1
C -1 -0.62610854 -0.00000000  0.00000000
C -1  0.62617250  0.00000000 -0.00000000
H 0  0.95031358 -0.88075400  0.50964900
H 0 -0.95008480 -0.88202100 -0.50795000
H 0  0.95014712  0.88200900  0.50791600
H 0  0.95015450 -0.00087300 -1.01781900
H 0 -0.95025044  0.88074200 -0.50968100
H 0 -0.95009054  0.00086000  1.01778700

