%chk=opt.chk
%mem=8GB
%nprocshared=24
#p opt UM062X/6-311+G** nosymm int=superfine 

Title Card Required

0 1
C -1 -0.77881794 -0.00000000  0.00000000
C -1  0.77889750  0.00000000 -0.00000000
H 0  1.18209738 -0.88075400  0.50964900
H 0 -1.18181280 -0.88202100 -0.50795000
H 0  1.18189032  0.88200900  0.50791600
H 0  1.18189950 -0.00087300 -1.01781900
H 0 -1.18201884  0.88074200 -0.50968100
H 0 -1.18181994  0.00086000  1.01778700

