%chk=opt.chk
%mem=8GB
%nprocshared=24
#p opt UM062X/6-311+G** nosymm int=superfine 

Title Card Required

0 1
C -1 -1.17586238 -0.00000000  0.00000000
C -1  1.17598250  0.00000000 -0.00000000
H 0  1.78473526 -0.88075400  0.50964900
H 0 -1.78430560 -0.88202100 -0.50795000
H 0  1.78442264  0.88200900  0.50791600
H 0  1.78443650 -0.00087300 -1.01781900
H 0 -1.78461668  0.88074200 -0.50968100
H 0 -1.78431638  0.00086000  1.01778700

