%chk=opt.chk
%mem=24GB
%nprocshared=28
#p opt UM062X/6-311+G** nosymm int=superfine SCF=(Tight,MaxCycle=200)

Title Card Required

1 2
C -1  -0.92736647  0.00000000  0.00000000
C -1   0.92736647  0.00000000 -0.00000000
C 0   0.00000688 -2.15641600  0.00035500
C 0   0.00001300 -3.53176600  0.00057200
C 0  -0.86459559 -4.32427500  0.27970800
C 0  -0.92663006 -1.48110800  0.26120100
C 0   0.50329882 -5.72058700 -0.16372700
H 0   0.97054024 -6.59818100 -0.31972100
C 0  -1.12559353  0.83924400  1.16049800
C 0  -0.50347700 -5.72054000  0.16439000
H 0  -0.97079412 -6.59809200  0.32024000
C 0   0.86453747 -4.32435700 -0.27879900
C 0   0.92661018 -1.48115600 -0.26092300
C 0   1.27806288  2.25440400 -1.16868900
C 0  -1.12506282  0.30603300 -1.40736600
C 0  -1.44370659  2.91080500  2.39776700
H 0  -1.56581712  3.98261000  2.37971100
C 0  -1.76083394 -3.66420300  0.57630300
H 0  -2.46065376 -4.19797000  0.80625700
C 0  -1.18802182  1.60942100 -1.98926600
C 0   1.78259518 -2.23542700 -0.55533500
H 0   2.50484229 -1.73401000 -0.73946300
C 0   1.12520582  0.30612000  1.40730900
C 0   1.18805853  1.60950600  1.98921100
C 0   1.76071312 -3.66436000 -0.57587200
H 0   2.46045953 -4.19817900 -0.80608800
C 0  -1.27859512  2.25426600  1.16871200
C 0  -1.11946135  0.19487900  2.42776200
H 0  -0.97867288 -0.86727000  2.47572600
C 0   1.22777200 -0.78817100  2.31078900
H 0   1.21316535 -1.80013300  1.93766400
C 0  -1.45508771  2.24305700  3.60206400
H 0  -1.58829565  2.78230300  4.52521400
C 0  -1.78268006 -2.23527500  0.55555000
H 0  -2.50494553 -1.73379100  0.73935900
C 0  -1.29882159  1.73853600 -3.38703700
H 0  -1.32981435  2.73906600 -3.80157800
C 0   1.12554229  0.83928600 -1.16052200
C 0  -1.24337506  3.13328800  0.02989000
H 0  -1.28069882  4.18685100  0.28738700
C 0  -1.39084018  0.65295200 -4.22298900
H 0  -1.49044541  0.79238800 -5.28919700
C 0  -1.18174971  2.86449500 -1.28690100
H 0  -1.17220771  3.73278800 -1.93870900
C 0   1.29938365  1.73861300  3.38691600
H 0   1.33034506  2.73914300  3.80146400
C 0  -1.28210512  0.86412900  3.61171400
H 0  -1.26798559  0.31624300  4.54594900
C 0  -1.22726653 -0.78825600 -2.31093200
H 0  -1.21267135 -1.80022700 -1.93784700
C 0   1.39187253  0.65303000  4.22277600
H 0   1.49186929  0.79245400  5.28892300
C 0   1.44314606  2.91106900 -2.39767900
H 0   1.56485282  3.98295200 -2.37956000
C 0   1.36810165 -0.62738900  3.66585200
H 0   1.45752100 -1.50257400  4.29316200
C 0   1.45497376  2.24335300 -3.60198400
H 0   1.58818706  2.78267900 -4.52508500
C 0   1.24223029  3.13343700 -0.02990000
H 0   1.27880771  4.18703300 -0.28744400
C 0  -1.36717635 -0.62746600 -3.66607200
H 0  -1.45632118 -1.50265200 -4.29345000
C 0   1.18096359  2.86460000  1.28690700
H 0   1.17097500  3.73287300  1.93872900
C 0   1.11967929  0.19499300 -2.42782300
H 0   0.97905906 -0.86718000 -2.47590300
C 0   1.28235212  0.86435600 -3.61171000
H 0   1.26851018  0.31649400 -4.54596700

