%oldchk=../00115/opt.chk
%chk=opt.chk
%mem=4GB
%nprocshared=8
#p opt UM062X/6-311+G** nosymm int=superfine SCF=(MaxCycle=200,NoVarAcc,noincfock) guess=read

Title Card Required

0 1
B -1  -1.167066   0.000000   0.000000
N -1  1.167066   0.000000   0.000000
H  0  -2.345583   0.020565   0.000000
H  0  2.188796   0.036341   0.000000

