%chk=opt.chk
%mem=4GB
%nprocshared=8
#p opt UM062X/6-311+G** nosymm int=superfine

Title Card Required

0 1
B -1 -1.10242901 -0.00000000  0.00000000
N -1  1.10242901  0.00000000 -0.00000000
H  0  1.46600326 -0.94930974  0.00000000
H  0 -1.41101625 -0.58327670  1.01025442
H  0  1.46601024  0.47465360 -0.82212465
H  0  1.46599553  0.47465285  0.82213036
H  0 -1.41101637  1.16654475  0.00002019
H  0 -1.41103540 -0.58325811 -1.01025675

