%chk=opt.chk
%mem=4GB
%nprocshared=8
#p UM062X/6-311+G** force int=superfine 

Title Card Required

1 2
C   -0.424135   0.000000   0.000000
C   0.424135   0.000000   0.000000
H   -1.246421   -0.783437   -0.000000
H   -1.242167   0.789557   0.000000
H   1.246421   0.783437   -0.000000
H   1.242167   -0.789557   0.000000

