%chk=opt.chk
%mem=4GB
%nprocshared=8
#p UM062X/6-311+G** force int=superfine 

Title Card Required

1 2
C   -0.431204   0.000000   0.000000
C   0.431204   0.000000   0.000000
H   -1.248270   -0.788328   0.000000
H   -1.243765   0.794678   -0.000000
H   1.248270   0.788328   0.000000
H   1.243765   -0.794678   -0.000000

