%chk=opt.chk
%mem=4GB
%nprocshared=8
#p UM062X/6-311+G** force int=superfine 

Title Card Required

1 2
C   -0.466549   0.000000   0.000000
C   0.466549   0.000000   0.000000
H   -1.260777   -0.809463   -0.000000
H   -1.254872   0.817132   -0.000000
H   1.260777   0.809463   0.000000
H   1.254872   -0.817132   -0.000000

