%chk=opt.chk
%mem=4GB
%nprocshared=8
#p UM062X/6-311+G** force int=superfine 

Title Card Required

1 2
C   -0.473618   0.000000   0.000000
C   0.473618   0.000000   0.000000
H   -1.263868   -0.813115   -0.000000
H   -1.257651   0.821083   0.000000
H   1.263868   0.813115   -0.000000
H   1.257651   -0.821083   0.000000

