%chk=opt.chk
%mem=4GB
%nprocshared=8
#p UM062X/6-311+G** force int=superfine 

Title Card Required

1 2
C   -0.487755   0.000000   0.000000
C   0.487755   0.000000   0.000000
H   -1.270601   -0.819881   0.000000
H   -1.263709   0.828495   0.000000
H   1.270601   0.819881   -0.000000
H   1.263709   -0.828495   -0.000000

