%chk=opt.chk
%mem=4GB
%nprocshared=8
#p UM062X/6-311+G** force int=superfine 

Title Card Required

1 2
C   -0.501893   0.000000   0.000000
C   0.501893   0.000000   0.000000
H   -1.278891   -0.825539   0.000000
H   -1.270572   0.835652   -0.000000
H   1.278891   0.825539   0.000000
H   1.270572   -0.835652   -0.000000

