%chk=opt.chk
%mem=4GB
%nprocshared=8
#p UM062X/6-311+G** force int=superfine 

Title Card Required

1 2
C   -0.508962   0.000000   0.000000
C   0.508962   0.000000   0.000000
H   -1.282213   -0.828576   -0.000000
H   -1.273517   0.839051   -0.000000
H   1.282213   0.828576   0.000000
H   1.273517   -0.839051   0.000000

