%chk=opt.chk
%mem=4GB
%nprocshared=8
#p UM062X/6-311+G** force int=superfine 

Title Card Required

1 2
C   -0.516031   0.000000   0.000000
C   0.516031   0.000000   0.000000
H   -1.285870   -0.831467   -0.000000
H   -1.276758   0.842342   -0.000000
H   1.285870   0.831467   0.000000
H   1.276758   -0.842342   0.000000

