%chk=opt.chk
%mem=4GB
%nprocshared=8
#p UM062X/6-311+G** force int=superfine 

Title Card Required

1 2
C   -0.523100   0.000000   0.000000
C   0.523100   0.000000   0.000000
H   -1.289781   -0.834209   0.000000
H   -1.280209   0.845530   0.000000
H   1.289781   0.834209   -0.000000
H   1.280209   -0.845530   -0.000000

