%chk=opt.chk
%mem=4GB
%nprocshared=8
#p UM062X/6-311+G** force int=superfine 

Title Card Required

1 2
C   -0.530169   0.000000   0.000000
C   0.530169   0.000000   0.000000
H   -1.294001   -0.836758   -0.000000
H   -1.283913   0.848578   0.000000
H   1.294001   0.836758   -0.000000
H   1.283913   -0.848578   0.000000

