%chk=opt.chk
%mem=4GB
%nprocshared=8
#p UM062X/6-311+G** force int=superfine 

Title Card Required

1 2
C   -0.537238   0.000000   0.000000
C   0.537238   0.000000   0.000000
H   -1.298405   -0.839172   -0.000000
H   -1.287770   0.851523   0.000000
H   1.298405   0.839172   -0.000000
H   1.287770   -0.851523   0.000000

