%chk=opt.chk
%mem=4GB
%nprocshared=8
#p UM062X/6-311+G** force int=superfine 

Title Card Required

1 2
C   -0.565514   0.000000   0.000000
C   0.565514   0.000000   0.000000
H   -1.317275   -0.847318   0.000000
H   -1.302920   0.863460   -0.000000
H   1.317275   0.847318   0.000000
H   1.302920   -0.863461   0.000000

