%chk=opt.chk
%mem=4GB
%nprocshared=8
#p UM062X/6-311+G** force int=superfine 

Title Card Required

1 2
C   -0.579651   0.000000   0.000000
C   0.579651   0.000000   0.000000
H   -1.182961   -0.909084   0.000000
H   -1.182949   0.909126   0.000000
H   1.182961   0.909084   -0.000000
H   1.182949   -0.909126   -0.000000

