%chk=opt.chk
%mem=4GB
%nprocshared=8
#p UM062X/6-311+G** force int=superfine 

Title Card Required

1 2
C   -0.586720   0.000000   0.000000
C   0.586720   0.000000   0.000000
H   -1.186888   -0.910774   -0.000000
H   -1.186881   0.910797   -0.000000
H   1.186888   0.910774   0.000000
H   1.186881   -0.910797   0.000000

