%chk=opt.chk
%mem=4GB
%nprocshared=8
#p UM062X/6-311+G** force int=superfine 

Title Card Required

1 2
C   -0.607927   0.000000   0.000000
C   0.607927   0.000000   0.000000
H   -1.199851   -0.915624   0.000000
H   -1.199882   0.915546   0.000000
H   1.199851   0.915624   -0.000000
H   1.199882   -0.915546   -0.000000

