%chk=opt.chk
%mem=4GB
%nprocshared=8
#p UM062X/6-311+G** force int=superfine 

Title Card Required

1 2
C   -0.614996   0.000000   0.000000
C   0.614996   0.000000   0.000000
H   -1.203778   -0.917261   0.000000
H   -1.203820   0.917170   0.000000
H   1.203778   0.917261   -0.000000
H   1.203820   -0.917170   -0.000000

