%chk=opt.chk
%mem=4GB
%nprocshared=8
#p UM062X/6-311+G** force int=superfine 

Title Card Required

1 2
C   -0.622065   0.000000   0.000000
C   0.622065   0.000000   0.000000
H   -1.207776   -0.918849   0.000000
H   -1.207829   0.918745   -0.000000
H   1.207776   0.918849   0.000000
H   1.207829   -0.918745   -0.000000

