%chk=opt.chk
%mem=4GB
%nprocshared=8
#p UM062X/6-311+G** force int=superfine 

Title Card Required

1 2
C   -0.636203   0.000000   0.000000
C   0.636203   0.000000   0.000000
H   -1.215976   -0.921890   -0.000000
H   -1.216051   0.921764   -0.000000
H   1.215976   0.921890   0.000000
H   1.216051   -0.921764   -0.000000

