%chk=opt.chk
%mem=4GB
%nprocshared=8
#p UM062X/6-311+G** force int=superfine 

Title Card Required

1 2
C   -0.643272   0.000000   0.000000
C   0.643272   0.000000   0.000000
H   -1.220170   -0.923348   0.000000
H   -1.220256   0.923213   0.000000
H   1.220170   0.923348   -0.000000
H   1.220256   -0.923213   -0.000000

