%chk=opt.chk
%mem=4GB
%nprocshared=8
#p UM062X/6-311+G** force int=superfine 

Title Card Required

1 2
C   -0.650341   0.000000   0.000000
C   0.650341   0.000000   0.000000
H   -1.224425   -0.924768   -0.000000
H   -1.224522   0.924625   -0.000000
H   1.224425   0.924768   0.000000
H   1.224522   -0.924625   0.000000

