%chk=opt.chk
%mem=4GB
%nprocshared=8
#p UM062X/6-311+G** force int=superfine 

Title Card Required

1 2
C   -0.657410   0.000000   0.000000
C   0.657410   0.000000   0.000000
H   -1.228737   -0.926152   -0.000000
H   -1.228844   0.926002   -0.000000
H   1.228737   0.926152   0.000000
H   1.228844   -0.926002   0.000000

