%chk=opt.chk
%mem=4GB
%nprocshared=8
#p UM062X/6-311+G** force int=superfine 

Title Card Required

1 2
C   -0.664478   0.000000   0.000000
C   0.664478   0.000000   0.000000
H   -1.233104   -0.927503   0.000000
H   -1.233221   0.927347   0.000000
H   1.233104   0.927503   -0.000000
H   1.233221   -0.927347   -0.000000

