%chk=opt.chk
%mem=4GB
%nprocshared=8
#p UM062X/6-311+G** force int=superfine 

Title Card Required

1 2
C   -0.671547   0.000000   0.000000
C   0.671547   0.000000   0.000000
H   -1.237524   -0.928821   0.000000
H   -1.237650   0.928660   0.000000
H   1.237524   0.928821   -0.000000
H   1.237650   -0.928660   -0.000000

