%chk=opt.chk
%mem=4GB
%nprocshared=8
#p UM062X/6-311+G** force int=superfine 

Title Card Required

1 2
C   -0.678616   0.000000   0.000000
C   0.678616   0.000000   0.000000
H   -1.241998   -0.930108   0.000000
H   -1.242132   0.929943   0.000000
H   1.241998   0.930108   -0.000000
H   1.242132   -0.929943   -0.000000

