%chk=opt.chk
%mem=4GB
%nprocshared=8
#p UM062X/6-311+G** force int=superfine 

Title Card Required

1 2
C   -0.685685   0.000000   0.000000
C   0.685685   0.000000   0.000000
H   -1.246522   -0.931364   -0.000000
H   -1.246662   0.931198   -0.000000
H   1.246522   0.931364   0.000000
H   1.246662   -0.931198   0.000000

