%chk=opt.chk
%mem=4GB
%nprocshared=8
#p UM062X/6-311+G** force int=superfine 

Title Card Required

1 2
C   -0.692754   0.000000   0.000000
C   0.692754   0.000000   0.000000
H   -1.251095   -0.932590   0.000000
H   -1.251240   0.932425   0.000000
H   1.251095   0.932590   -0.000000
H   1.251240   -0.932425   -0.000000

