%chk=opt.chk
%mem=4GB
%nprocshared=8
#p UM062X/6-311+G** force int=superfine 

Title Card Required

1 2
C   -0.699823   0.000000   0.000000
C   0.699823   0.000000   0.000000
H   -1.255719   -0.933783   -0.000000
H   -1.255854   0.933631   -0.000000
H   1.255719   0.933783   0.000000
H   1.255854   -0.933631   0.000000

