%chk=opt.chk
%mem=4GB
%nprocshared=8
#p UM062X/6-311+G** force int=superfine 

Title Card Required

1 2
C   -0.706892   0.000000   0.000000
C   0.706892   0.000000   0.000000
H   -1.260922   -0.934615   -0.000000
H   -1.260455   0.934914   -0.000000
H   1.260922   0.934615   0.000000
H   1.260455   -0.934914   0.000000

