%chk=opt.chk
%mem=4GB
%nprocshared=8
#p UM062X/6-311+G** force int=superfine 

Title Card Required

1 2
C   -0.713961   0.000000   0.000000
C   0.713961   0.000000   0.000000
H   -1.265187   -0.936073   -0.000000
H   -1.265349   0.935909   -0.000000
H   1.265187   0.936073   0.000000
H   1.265349   -0.935909   0.000000

