%chk=opt.chk
%mem=4GB
%nprocshared=8
#p UM062X/6-311+G** force int=superfine 

Title Card Required

1 2
C   -0.721030   0.000000   0.000000
C   0.721030   0.000000   0.000000
H   -1.269958   -0.937190   -0.000000
H   -1.270126   0.937022   -0.000000
H   1.269958   0.937190   0.000000
H   1.270126   -0.937022   -0.000000

