%chk=opt.chk
%mem=4GB
%nprocshared=8
#p UM062X/6-311+G** force int=superfine 

Title Card Required

1 2
C   -0.728099   0.000000   0.000000
C   0.728099   0.000000   0.000000
H   -1.274797   -0.938268   -0.000000
H   -1.274966   0.938103   -0.000000
H   1.274797   0.938268   0.000000
H   1.274966   -0.938103   0.000000

