%chk=opt.chk
%mem=4GB
%nprocshared=8
#p UM062X/6-311+G** force int=superfine 

Title Card Required

1 2
C   -0.735168   0.000000   0.000000
C   0.735168   0.000000   0.000000
H   -1.279698   -0.939313   -0.000000
H   -1.279864   0.939152   0.000000
H   1.279698   0.939313   -0.000000
H   1.279864   -0.939152   0.000000

