%chk=opt.chk
%mem=4GB
%nprocshared=8
#p UM062X/6-311+G** force int=superfine 

Title Card Required

1 2
C   -0.742237   0.000000   0.000000
C   0.742237   0.000000   0.000000
H   -1.283783   -0.941158   0.000000
H   -1.283818   0.941133   0.000000
H   1.283783   0.941158   -0.000000
H   1.283818   -0.941133   -0.000000

