%chk=opt.chk
%mem=4GB
%nprocshared=8
#p UM062X/6-311+G** force int=superfine 

Title Card Required

1 2
C   -0.763443   0.000000   0.000000
C   0.763443   0.000000   0.000000
H   -1.297977   -0.944823   -0.000000
H   -1.298023   0.944796   -0.000000
H   1.297977   0.944823   0.000000
H   1.298023   -0.944796   0.000000

