%chk=opt.chk
%mem=4GB
%nprocshared=8
#p UM062X/6-311+G** force int=superfine 

Title Card Required

1 2
C   -0.784650   0.000000   0.000000
C   0.784650   0.000000   0.000000
H   -1.312324   -0.948408   -0.000000
H   -1.312382   0.948377   -0.000000
H   1.312324   0.948408   0.000000
H   1.312382   -0.948377   0.000000

