%chk=opt.chk
%mem=4GB
%nprocshared=8
#p UM062X/6-311+G** force int=superfine 

Title Card Required

1 2
C   -0.791719   0.000000   0.000000
C   0.791719   0.000000   0.000000
H   -1.317138   -0.949586   -0.000000
H   -1.317202   0.949553   -0.000000
H   1.317138   0.949586   0.000000
H   1.317202   -0.949553   -0.000000

