%chk=opt.chk
%mem=4GB
%nprocshared=8
#p UM062X/6-311+G** force int=superfine 

Title Card Required

1 2
C   -0.805857   0.000000   0.000000
C   0.805857   0.000000   0.000000
H   -1.326813   -0.951914   0.000000
H   -1.326888   0.951878   0.000000
H   1.326813   0.951914   0.000000
H   1.326888   -0.951878   -0.000000

