%chk=opt.chk
%mem=4GB
%nprocshared=8
#p UM062X/6-311+G** force int=superfine 

Title Card Required

1 2
C   -0.812926   0.000000   0.000000
C   0.812926   0.000000   0.000000
H   -1.331674   -0.953065   0.000000
H   -1.331755   0.953027   0.000000
H   1.331674   0.953065   -0.000000
H   1.331755   -0.953027   -0.000000

