%chk=opt.chk
%mem=4GB
%nprocshared=8
#p UM062X/6-311+G** force int=superfine 

Title Card Required

1 2
C   -0.819995   0.000000   0.000000
C   0.819995   0.000000   0.000000
H   -1.336551   -0.954207   0.000000
H   -1.336637   0.954168   0.000000
H   1.336551   0.954207   -0.000000
H   1.336637   -0.954168   -0.000000

