%chk=opt.chk
%mem=4GB
%nprocshared=8
#p UM062X/6-311+G** force int=superfine 

Title Card Required

1 2
C   -0.834133   0.000000   0.000000
C   0.834133   0.000000   0.000000
H   -1.346356   -0.956455   -0.000000
H   -1.346456   0.956414   0.000000
H   1.346356   0.956455   -0.000000
H   1.346456   -0.956414   -0.000000

