%chk=opt.chk
%mem=4GB
%nprocshared=8
#p UM062X/6-311+G** force int=superfine 

Title Card Required

1 2
C   -0.841201   0.000000   0.000000
C   0.841201   0.000000   0.000000
H   -1.351346   -0.957468   0.000000
H   -1.351460   0.957427   0.000000
H   1.351346   0.957468   -0.000000
H   1.351460   -0.957427   -0.000000

