%chk=opt.chk
%mem=4GB
%nprocshared=8
#p UM062X/6-311+G** force int=superfine 

Title Card Required

1 2
C   -0.848270   0.000000   0.000000
C   0.848270   0.000000   0.000000
H   -1.356410   -0.958426   0.000000
H   -1.356535   0.958387   0.000000
H   1.356410   0.958426   -0.000000
H   1.356535   -0.958387   -0.000000

