%chk=opt.chk
%mem=4GB
%nprocshared=8
#p UM062X/6-311+G** force int=superfine 

Title Card Required

1 2
C   -0.855339   0.000000   0.000000
C   0.855339   0.000000   0.000000
H   -1.361552   -0.959339   -0.000000
H   -1.361683   0.959302   -0.000000
H   1.361552   0.959339   0.000000
H   1.361683   -0.959302   0.000000

