%chk=opt.chk
%mem=4GB
%nprocshared=8
#p UM062X/6-311+G** force int=superfine 

Title Card Required

1 2
C   -0.862408   0.000000   0.000000
C   0.862408   0.000000   0.000000
H   -1.366769   -0.960210   -0.000000
H   -1.366904   0.960178   0.000000
H   1.366769   0.960210   -0.000000
H   1.366904   -0.960178   0.000000

