%chk=opt.chk
%mem=4GB
%nprocshared=8
#p UM062X/6-311+G** force int=superfine 

Title Card Required

1 2
C   -0.904822   0.000000   0.000000
C   0.904822   0.000000   0.000000
H   -1.395927   -0.967193   -0.000000
H   -1.395956   0.967136   -0.000000
H   1.395927   0.967193   0.000000
H   1.395956   -0.967136   0.000000

