%chk=opt.chk
%mem=4GB
%nprocshared=8
#p UM062X/6-311+G** force int=superfine 

Title Card Required

1 2
C   -0.911891   0.000000   0.000000
C   0.911891   0.000000   0.000000
H   -1.400947   -0.968213   0.000000
H   -1.400978   0.968149   0.000000
H   1.400947   0.968212   -0.000000
H   1.400977   -0.968149   -0.000000

