%chk=opt.chk
%mem=4GB
%nprocshared=8
#p UM062X/6-311+G** force int=superfine 

Title Card Required

1 2
C   -0.926029   0.000000   0.000000
C   0.926029   0.000000   0.000000
H   -1.411010   -0.970217   0.000000
H   -1.411044   0.970142   0.000000
H   1.411010   0.970217   -0.000000
H   1.411044   -0.970142   -0.000000

