%chk=opt.chk
%mem=4GB
%nprocshared=8
#p UM062X/6-311+G** force int=superfine 

Title Card Required

1 2
C   -0.954304   0.000000   0.000000
C   0.954304   0.000000   0.000000
H   -1.431211   -0.974085   0.000000
H   -1.431251   0.973989   0.000000
H   1.431211   0.974085   0.000000
H   1.431251   -0.973988   0.000000

