%chk=opt.chk
%mem=4GB
%nprocshared=8
#p UM062X/6-311+G** force int=superfine 

Title Card Required

1 2
C   -0.968442   0.000000   0.000000
C   0.968442   0.000000   0.000000
H   -1.441334   -0.975941   0.000000
H   -1.441381   0.975840   0.000000
H   1.441334   0.975941   0.000000
H   1.441381   -0.975840   0.000000

