%chk=opt.chk
%mem=4GB
%nprocshared=8
#p UM062X/6-311+G** force int=superfine 

Title Card Required

1 2
C   -0.975511   0.000000   0.000000
C   0.975511   0.000000   0.000000
H   -1.446402   -0.976851   -0.000000
H   -1.446452   0.976748   -0.000000
H   1.446402   0.976851   -0.000000
H   1.446452   -0.976748   -0.000000

