%chk=opt.chk
%mem=4GB
%nprocshared=8
#p UM062X/6-311+G** force int=superfine 

Title Card Required

1 2
C   -0.989649   0.000000   0.000000
C   0.989649   0.000000   0.000000
H   -1.456544   -0.978630   0.000000
H   -1.456599   0.978527   0.000000
H   1.456544   0.978630   -0.000000
H   1.456599   -0.978526   -0.000000

