%chk=opt.chk
%mem=4GB
%nprocshared=8
#p UM062X/6-311+G** force int=superfine 

Title Card Required

1 2
C   -0.996718   0.000000   0.000000
C   0.996718   0.000000   0.000000
H   -1.461617   -0.979500   -0.000000
H   -1.461674   0.979398   -0.000000
H   1.461617   0.979500   0.000000
H   1.461674   -0.979398   -0.000000

