%chk=opt.chk
%mem=4GB
%nprocshared=8
#p UM062X/6-311+G** force int=superfine 

Title Card Required

1 2
C   -1.003787   0.000000   0.000000
C   1.003787   0.000000   0.000000
H   -1.467689   -0.980641   0.000000
H   -1.467685   0.980673   0.000000
H   1.467689   0.980641   -0.000000
H   1.467685   -0.980673   -0.000000

