%chk=opt.chk
%mem=4GB
%nprocshared=8
#p UM062X/6-311+G** force int=superfine 

Title Card Required

1 2
C   -1.010856   0.000000   0.000000
C   1.010856   0.000000   0.000000
H   -1.472921   -0.981527   0.000000
H   -1.472911   0.981562   0.000000
H   1.472921   0.981527   -0.000000
H   1.472911   -0.981562   -0.000000

