%chk=opt.chk
%mem=4GB
%nprocshared=8
#p UM062X/6-311+G** force int=superfine 

Title Card Required

1 2
C   -1.017924   0.000000   0.000000
C   1.017924   0.000000   0.000000
H   -1.478169   -0.982402   0.000000
H   -1.478152   0.982440   0.000000
H   1.478169   0.982402   -0.000000
H   1.478152   -0.982440   -0.000000

