%chk=opt.chk
%mem=4GB
%nprocshared=8
#p UM062X/6-311+G** force int=superfine 

Title Card Required

1 2
C   -1.053269   0.000000   0.000000
C   1.053269   0.000000   0.000000
H   -1.504684   -0.986781   0.000000
H   -1.504639   0.986837   0.000000
H   1.504684   0.986781   0.000000
H   1.504639   -0.986837   0.000000

