%chk=opt.chk
%mem=4GB
%nprocshared=8
#p UM062X/6-311+G** force int=superfine 

Title Card Required

1 2
C   -1.060338   0.000000   0.000000
C   1.060338   0.000000   0.000000
H   -1.510050   -0.987727   0.000000
H   -1.510007   0.987786   0.000000
H   1.510050   0.987727   -0.000000
H   1.510007   -0.987787   -0.000000

