%chk=opt.chk
%mem=4GB
%nprocshared=8
#p UM062X/6-311+G** force int=superfine 

Title Card Required

1 2
C   -1.067407   0.000000   0.000000
C   1.067407   0.000000   0.000000
H   -1.515437   -0.988660   -0.000000
H   -1.515395   0.988727   -0.000000
H   1.515437   0.988660   0.000000
H   1.515395   -0.988727   0.000000

