%chk=opt.chk
%mem=4GB
%nprocshared=8
#p UM062X/6-311+G** force int=superfine 

Title Card Required

1 2
C   -1.095683   0.000000   0.000000
C   1.095683   0.000000   0.000000
H   -1.537112   -0.991632   0.000000
H   -1.537074   0.991762   0.000000
H   1.537112   0.991632   0.000000
H   1.537074   -0.991762   0.000000

