%chk=opt.chk
%mem=4GB
%nprocshared=8
#p UM062X/6-311+G** force int=superfine 

Title Card Required

1 2
C   -1.109820   0.000000   0.000000
C   1.109820   0.000000   0.000000
H   -1.547834   -0.992605   0.000000
H   -1.547798   0.992784   0.000000
H   1.547834   0.992605   0.000000
H   1.547797   -0.992784   0.000000

