%chk=opt.chk
%mem=4GB
%nprocshared=8
#p UM062X/6-311+G** force int=superfine 

Title Card Required

1 2
C   -1.116889   0.000000   0.000000
C   1.116889   0.000000   0.000000
H   -1.553156   -0.993067   -0.000000
H   -1.553122   0.993274   -0.000000
H   1.553156   0.993067   -0.000000
H   1.553122   -0.993274   -0.000000

