%chk=opt.chk
%mem=4GB
%nprocshared=8
#p UM062X/6-311+G** force int=superfine 

Title Card Required

1 2
C   -1.123958   0.000000   0.000000
C   1.123958   0.000000   0.000000
H   -1.558877   -0.994173   -0.000000
H   -1.558781   0.994123   -0.000000
H   1.558877   0.994173   -0.000000
H   1.558781   -0.994123   -0.000000

