%chk=opt.chk
%mem=4GB
%nprocshared=8
#p opt UM062X/6-311+G** nosymm int=superfine 

Title Card Required

1 2
C -1 -0.43827304  0.00000000 -0.00000000
C -1  0.43827304 -0.00000000  0.00000000
H 0 -0.78288516 -0.93229700  0.00000000
H 0 -0.78084784  0.93665800  0.00000000
H 0  0.78288516  0.93229700 -0.00000000
H 0  0.78084784 -0.93665800 -0.00000000

