%chk=opt.chk
%mem=4GB
%nprocshared=8
#p opt UM062X/6-311+G** nosymm int=superfine 

Title Card Required

1 2
C -1 -1.06740692  0.00000000 -0.00000000
C -1  1.06740692 -0.00000000  0.00000000
H 0 -1.90670418 -0.93229700  0.00000000
H 0 -1.90174232  0.93665800  0.00000000
H 0  1.90670418  0.93229700 -0.00000000
H 0  1.90174232 -0.93665800 -0.00000000

