%oldchk=../00015/opt.chk
%chk=opt.chk
%mem=4GB
%nprocshared=8
#p opt UM062X/6-311+G** nosymm int=superfine SCF=(MaxCycle=200,NoVarAcc,noincfock) guess=read

Title Card Required

0 1
O -1  -1.186007   0.000000   0.000000
S -1  1.186007   0.000000   0.000000
H  0  -1.235051   -0.220962   0.941093
H  0  1.114696   -1.144872   -0.700163


