%oldchk=../00030/opt.chk
%chk=opt.chk
%mem=4GB
%nprocshared=8
#p opt UM062X/6-311+G** nosymm int=superfine SCF=(MaxCycle=200,NoVarAcc,noincfock) guess=read

Title Card Required

0 1
O -1  -1.261006   0.000049   -0.000004
S -1  1.261006   -0.000049   0.000004
H  0  -1.267271   -0.064305   -0.971936
H  0  1.298097   -1.319001   0.351376


