%oldchk=../00105/opt.chk
%chk=opt.chk
%mem=4GB
%nprocshared=8
#p opt UM062X/6-311+G** nosymm int=superfine SCF=(MaxCycle=200,NoVarAcc,noincfock) guess=read

Title Card Required

0 1
O -1  -1.661005   -0.000137   -0.000090
S -1  1.661016   0.000190   0.000166
H  0  -1.675889   -0.121032   -0.961987
H  0  1.395623   -0.803607   1.038543


