%oldchk=../00140/opt.chk
%chk=opt.chk
%mem=4GB
%nprocshared=8
#p opt UM062X/6-311+G** nosymm int=superfine SCF=(MaxCycle=200,NoVarAcc,noincfock) guess=read

Title Card Required

0 1
O -1  -1.711007   0.000000   -0.000000
S -1  1.711007   -0.000000   0.000000
H  0  -1.708935   -0.913581   -0.328450
H  0  1.461035   0.928163   0.942101

