%oldchk=../00105/opt.chk
%chk=opt.chk
%mem=4GB
%nprocshared=8
#p opt UM062X/6-311+G** nosymm int=superfine SCF=(MaxCycle=200,NoVarAcc,noincfock) guess=read

Title Card Required

0 1
O -1  -1.686007   0.000000   -0.000007
S -1  1.686007   -0.000000   0.000007
H  0  -1.680182   -0.245764   1.169588
H  0  1.686368   -0.016505   -1.341811


