%oldchk=../00140/opt.chk
%chk=opt.chk
%mem=4GB
%nprocshared=8
#p opt UM062X/6-311+G** nosymm int=superfine SCF=(MaxCycle=200,NoVarAcc,noincfock) guess=read

Title Card Required

0 1
O -1  -1.736006   0.000330   0.000455
S -1  1.736005   -0.000303   -0.000428
H  0  -1.622280   -0.316315   0.919147
H  0  1.552998   -0.761212   -1.144274


