%oldchk=../00145/opt.chk
%chk=opt.chk
%mem=4GB
%nprocshared=8
#p opt UM062X/6-311+G** nosymm int=superfine SCF=(MaxCycle=200,NoVarAcc,noincfock) guess=read

Title Card Required

0 1
O -1  -1.836006   -0.000138   -0.000113
S -1  1.836006   0.000121   0.000091
H  0  -1.747402   -0.256541   -0.928200
H  0  1.747490   -0.403478   1.284140


