%chk=opt.chk
%mem=24GB
%nprocshared=32
#p opt UM062X/6-311+G** nosymm int=superfine

Title Card Required

1 2
C -1  -1.44092434  0.00000000 -0.00000000
C -1   1.44092434  0.00000000  0.00000000
C 0  -0.00000901 -2.10939150  0.00000000
C 0  -0.00004282 -3.49739450 -0.00002923
C 0  -1.14431047 -4.30978824  0.23683941
C 0  -1.27955124 -1.47743341  0.21180861
C 0   0.66864058 -5.70448148 -0.14037520
H 0   1.29683155 -6.57770083 -0.27590245
C 0  -1.57119191  0.79909228  1.19497871
C 0  -0.66876086 -5.70445753  0.14058092
H 0  -1.29697401 -6.57765518  0.27615289
C 0   1.14421578 -4.30982477 -0.23673149
C 0   1.27955679 -1.47746159 -0.21171188
C 0   1.73981218  2.22015782 -1.26414711
C 0  -1.60287959  0.36304969 -1.38863642
C 0  -1.88980487  2.83477859  2.52156339
H 0  -2.03280977  3.90897484  2.54870898
C 0  -2.35095277 -3.68593494  0.49420130
H 0  -3.26986914 -4.24085414  0.69215352
C 0  -1.63180881  1.69172550 -1.92531445
C 0   2.39692913 -2.26363507 -0.46776802
H 0   3.36355726 -1.77391050 -0.61586487
C 0   1.60284700  0.36320231  1.38856797
C 0   1.63163071  1.69192550  1.92515097
C 0   2.35093548 -3.68600507 -0.49384898
H 0   3.26987402 -4.24095586 -0.69161423
C 0  -1.74026176  2.22017516  1.26398248
C 0  -1.49411443  0.11335766  2.44139402
H 0  -1.32313728 -0.95247618  2.44459888
C 0   1.70478752 -0.69940635  2.34047366
H 0   1.71991137 -1.72224140  1.99670883
C 0  -1.85746241  2.12465651  3.70314913
H 0  -1.98481054  2.63347160  4.65105868
C 0  -2.39690650 -2.26355193  0.46808304
H 0  -3.36349507 -1.77379450  0.61631016
C 0  -1.70593895  1.87110722 -3.32211454
H 0  -1.70711022  2.88568909 -3.70323753
C 0   1.57112567  0.79902971 -1.19505569
C 0  -1.71098093  3.13669941  0.15424373
H 0  -1.75481279  4.18083977  0.44851673
C 0  -1.80370151  0.81743900 -4.20129371
H 0  -1.88120783  0.99791802 -5.26660776
C 0  -1.63268902  2.91654451 -1.17256652
H 0  -1.61340534  3.80967096 -1.78986703
C 0   1.70610092  1.87140379  3.32191113
H 0   1.70716684  2.88600091  3.70298763
C 0  -1.63856274  0.74609370  3.65570968
H 0  -1.57641780  0.16759911  4.56943471
C 0  -1.70468218 -0.69962065 -2.34049884
H 0  -1.71991942 -1.72243661 -1.99668506
C 0   1.80420591  0.81779202  4.20113081
H 0   1.88203513  0.99835301  5.26640679
C 0   1.88951012  2.83471440 -2.52173664
H 0   2.03228604  3.90893814 -2.54891016
C 0   1.82056640 -0.48541917  3.69307679
H 0   1.91996577 -1.33313772  4.36004668
C 0   1.85756856  2.12450650 -3.70328028
H 0   1.98501724  2.63327641 -4.65120146
C 0   1.70999488  3.13677656 -0.15449784
H 0   1.75326330  4.18090918 -0.44887282
C 0  -1.82017494 -0.48573282 -3.69314018
H 0  -1.91942429 -1.33350526 -4.36006394
C 0   1.63185405  2.91669446  1.17232838
H 0   1.61208757  3.80985499  1.78956641
C 0   1.49445243  0.11321235 -2.44144785
H 0   1.32377285 -0.95266380 -2.44465558
C 0   1.63896215  0.74590932 -3.65577389
H 0   1.57708190  0.16732892 -4.56946386

