%chk=opt.chk
%mem=24GB
%nprocshared=28
#p opt UM062X/6-311+G** nosymm int=superfine SCF=(Tight,MaxCycle=200)

Title Card Required

1 2
C -1  -0.87029776  0.00000000  0.00000000
C -1   0.87029776  0.00000000 -0.00000000
C 0   0.00000646 -2.15641600  0.00035500
C 0   0.00001220 -3.53176600  0.00057200
C 0  -0.81138971 -4.32427500  0.27970800
C 0  -0.86960667 -1.48110800  0.26120100
C 0   0.47232659 -5.72058700 -0.16372700
H 0   0.91081468 -6.59818100 -0.31972100
C 0  -1.05632624  0.83924400  1.16049800
C 0  -0.47249380 -5.72054000  0.16439000
H 0  -0.91105294 -6.59809200  0.32024000
C 0   0.81133516 -4.32435700 -0.27879900
C 0   0.86958801 -1.48115600 -0.26092300
C 0   1.19941286  2.25440400 -1.16868900
C 0  -1.05582819  0.30603300 -1.40736600
C 0  -1.35486311  2.91080500  2.39776700
H 0  -1.46945914  3.98261000  2.37971100
C 0  -1.65247493 -3.66420300  0.57630300
H 0  -2.30922892 -4.19797000  0.80625700
C 0  -1.11491279  1.60942100 -1.98926600
C 0   1.67289701 -2.23542700 -0.55533500
H 0   2.35069815 -1.73401000 -0.73946300
C 0   1.05596239  0.30612000  1.40730900
C 0   1.11494724  1.60950600  1.98921100
C 0   1.65236154 -3.66436000 -0.57587200
H 0   2.30904664 -4.19817900 -0.80608800
C 0  -1.19991234  2.25426600  1.16871200
C 0  -1.05057142  0.19487900  2.42776200
H 0  -0.91844686 -0.86727000  2.47572600
C 0   1.15221680 -0.78817100  2.31078900
H 0   1.13850902 -1.80013300  1.93766400
C 0  -1.36554385  2.24305700  3.60206400
H 0  -1.49055438  2.78230300  4.52521400
C 0  -1.67297667 -2.23527500  0.55555000
H 0  -2.35079504 -1.73379100  0.73935900
C 0  -1.21889411  1.73853600 -3.38703700
H 0  -1.24797962  2.73906600 -3.80157800
C 0   1.05627815  0.83928600 -1.16052200
C 0  -1.16685967  3.13328800  0.02989000
H 0  -1.20188659  4.18685100  0.28738700
C 0  -1.30525001  0.65295200 -4.22298900
H 0  -1.39872569  0.79238800 -5.28919700
C 0  -1.10902665  2.86449500 -1.28690100
H 0  -1.10007185  3.73278800 -1.93870900
C 0   1.21942158  1.73861300  3.38691600
H 0   1.24847767  2.73914300  3.80146400
C 0  -1.20320634  0.86412900  3.61171400
H 0  -1.18995571  0.31624300  4.54594900
C 0  -1.15174244 -0.78825600 -2.31093200
H 0  -1.13804542 -1.80022700 -1.93784700
C 0   1.30621884  0.65303000  4.22277600
H 0   1.40006195  0.79245400  5.28892300
C 0   1.35433707  2.91106900 -2.39767900
H 0   1.46855419  3.98295200 -2.37956000
C 0   1.28391078 -0.62738900  3.66585200
H 0   1.36782740 -1.50257400  4.29316200
C 0   1.36543692  2.24335300 -3.60198400
H 0   1.49045247  2.78267900 -4.52508500
C 0   1.16578535  3.13343700 -0.02990000
H 0   1.20011185  4.18703300 -0.28744400
C 0  -1.28304242 -0.62746600 -3.66607200
H 0  -1.36670141 -1.50265200 -4.29345000
C 0   1.10828891  2.86460000  1.28690700
H 0   1.09891500  3.73287300  1.93872900
C 0   1.05077595  0.19499300 -2.42782300
H 0   0.91880927 -0.86718000 -2.47590300
C 0   1.20343814  0.86435600 -3.61171000
H 0   1.19044801  0.31649400 -4.54596700

