%chk=opt.chk
%mem=24GB
%nprocshared=28
#p opt UM062X/6-311+G** nosymm int=superfine 

Title Card Required

1 2
C -1  -1.69769539  0.00000000  0.00000000
C -1   1.69769539  0.00000000 -0.00000000
C 0  -0.00000931 -2.05545100 -0.00218400
C 0  -0.00001863 -3.45663400 -0.00371000
C 0  -1.17230522 -4.28964700  0.19341900
C 0  -1.36830443 -1.46623300  0.16419700
C 0   0.68769272 -5.68273300 -0.12500700
H 0   1.34223411 -6.55103000 -0.24207000
C 0  -1.71881427  0.76445700  1.22074200
C 0  -0.68776412 -5.68298300  0.11278600
H 0  -1.34229310 -6.55152100  0.22810600
C 0   1.17225348 -4.28923100 -0.20263200
C 0   1.36828373 -1.46588400 -0.16727800
C 0   1.84779061  2.19168900 -1.33769900
C 0  -1.81436092  0.40953900 -1.37420600
C 0  -1.90555010  2.76908500  2.62285300
H 0  -2.02132986  3.84514500  2.68868800
C 0  -2.42943363 -3.70308600  0.41334100
H 0  -3.36282721 -4.27951100  0.58257000
C 0  -1.80633618  1.75683100 -1.86867700
C 0   2.49499953 -2.28649400 -0.38846300
H 0   3.49840650 -1.81328700 -0.50709000
C 0   1.81439403  0.40665600  1.37505900
C 0   1.80637447  1.75290300  1.87236300
C 0   2.42941915 -3.70220600 -0.42113800
H 0   3.36282203 -4.27827200 -0.59153800
C 0  -1.84801619  2.18886500  1.34229400
C 0  -1.56892394  0.04225000  2.44254900
H 0  -1.42239251 -1.02702500  2.40771200
C 0   1.88766078 -0.62790300  2.36195200
H 0   1.92393405 -1.65906400  2.04521500
C 0  -1.81222927  2.02407800  3.78017400
H 0  -1.87001463  2.50708000  4.74815100
C 0  -2.49500574 -2.28730400  0.38372300
H 0  -3.49840132 -1.81434400  0.50342700
C 0  -1.82888617  1.98025300 -3.26008800
H 0  -1.80394583  3.00602900 -3.60919500
C 0   1.71877495  0.76701800 -1.21914100
C 0  -1.85002988  3.13594400  0.25924100
H 0  -1.87845743  4.17143300  0.58431100
C 0  -1.89974704  0.95518900 -4.17545700
H 0  -1.93389487  1.17003200 -5.23669600
C 0  -1.79862188  2.95542500 -1.07578900
H 0  -1.78123132  3.86784300 -1.66423700
C 0   1.82913244  1.97339900  3.26423800
H 0   1.80422626  2.99843800  3.61550800
C 0  -1.62110389  0.64359400  3.67979400
H 0  -1.51155145  0.03773200  4.57151700
C 0  -1.88755213 -0.62294000 -2.36327900
H 0  -1.92388852 -1.65476100 -2.04870200
C 0   1.90013612  0.94641300  4.17744200
H 0   1.93446090  1.15903100  5.23912300
C 0   1.90532659  2.77460400 -2.61703400
H 0   2.02095734  3.85081600 -2.68059700
C 0   1.94711008 -0.37237300  3.71002300
H 0   2.02575666 -1.19837700  4.40661800
C 0   1.81220030  2.03201600 -3.77592100
H 0   1.87000946  2.51705500 -4.74287700
C 0   1.84956837  3.13649300 -0.25265600
H 0   1.87769376  4.17267000 -0.57555100
C 0  -1.94683379 -0.36457400 -3.71081600
H 0  -2.02545037 -1.18910900 -4.40915300
C 0   1.79832697  2.95316000  1.08199600
H 0   1.78078430  3.86433700  1.67236000
C 0   1.56899948  0.04736400 -2.44246500
H 0   1.42255704 -1.02199400 -2.40988200
C 0   1.62120840  0.65130400 -3.67844300
H 0   1.51177393  0.04729700 -4.57143800

