%oldchk=force.chk
%chk=nbo.chk
#p UM062X/6-311+G** Pop=NBO Read

NBO Analysis

0 1
Si -1.06251800  0.00000000  0.00000000
Si  1.06251800 -0.00000000  0.00000000
H -1.84341211 -1.24876948  0.00000000
H  1.84341211  1.24876850 -0.00078300
H -1.84342291  1.24877653  0.00014200
H  1.84342291 -1.24877557  0.00092500

$NBO
ARCHIVE FILE=ethane_nbo.47
$END


