%chk=opt.chk
%mem=16GB
%nprocshared=28
#p opt UM062X/6-311+G** nosymm int=superfine

Title Card Required

1 2
C -1 -1.64067280  0.00000000 -0.00000000
C -1  1.64067280 -0.00000000 -0.00000000
H 0  1.70860445 -0.93683200  0.54223100
H 0 -1.70688635 -0.93793100 -0.54043100
H 0  1.70789950  0.93803600  0.54018500
H 0  1.70705080 -0.00115200 -1.08249500
H 0 -1.70853315  0.93691100 -0.54207800
H 0 -1.70777990  0.00091900  1.08245700

