%chk=opt.chk
%mem=24GB
%nprocshared=64
#p opt UM062X/6-311+G** nosymm int=superfine

Title Card Required

1 2
C -1  -1.41239118  0.00000000 -0.00000000
C -1   1.41239118  0.00000000  0.00000000
C 0  -0.00000883 -2.10939150  0.00000000
C 0  -0.00004198 -3.49739450 -0.00002923
C 0  -1.12165085 -4.30978824  0.23683941
C 0  -1.25421360 -1.47743341  0.21180861
C 0   0.65540018 -5.70448148 -0.14037520
H 0   1.27115171 -6.57770083 -0.27590245
C 0  -1.54007919  0.79909228  1.19497871
C 0  -0.65551808 -5.70445753  0.14058092
H 0  -1.27129135 -6.57765518  0.27615289
C 0   1.12155804 -4.30982477 -0.23673149
C 0   1.25421903 -1.47746159 -0.21171188
C 0   1.70536046  2.22015782 -1.26414711
C 0  -1.57113941  0.36304969 -1.38863642
C 0  -1.85238299  2.83477859  2.52156339
H 0  -1.99255611  3.90897484  2.54870898
C 0  -2.30439925 -3.68593494  0.49420130
H 0  -3.20511926 -4.24085414  0.69215352
C 0  -1.59949577  1.69172550 -1.92531445
C 0   2.34946519 -2.26363507 -0.46776802
H 0   3.29695216 -1.77391050 -0.61586487
C 0   1.57110746  0.36320231  1.38856797
C 0   1.59932119  1.69192550  1.92515097
C 0   2.30438230 -3.68600507 -0.49384898
H 0   3.20512404 -4.24095586 -0.69161423
C 0  -1.70580114  2.22017516  1.26398248
C 0  -1.46452801  0.11335766  2.44139402
H 0  -1.29693654 -0.95247618  2.44459888
C 0   1.67102936 -0.69940635  2.34047366
H 0   1.68585371 -1.72224140  1.99670883
C 0  -1.82068097  2.12465651  3.70314913
H 0  -1.94550736  2.63347160  4.65105868
C 0  -2.34944300 -2.26355193  0.46808304
H 0  -3.29689121 -1.77379450  0.61631016
C 0  -1.67215799  1.87110722 -3.32211454
H 0  -1.67330606  2.88568909 -3.70323753
C 0   1.54001427  0.79902971 -1.19505569
C 0  -1.67710011  3.13669941  0.15424373
H 0  -1.72006403  4.18083977  0.44851673
C 0  -1.76798465  0.81743900 -4.20129371
H 0  -1.84395619  0.99791802 -5.26660776
C 0  -1.60035854  2.91654451 -1.17256652
H 0  -1.58145672  3.80967096 -1.78986703
C 0   1.67231674  1.87140379  3.32191113
H 0   1.67336156  2.88600091  3.70298763
C 0  -1.60611596  0.74609370  3.65570968
H 0  -1.54520160  0.16759911  4.56943471
C 0  -1.67092610 -0.69962065 -2.34049884
H 0  -1.68586160 -1.72243661 -1.99668506
C 0   1.76847907  0.81779202  4.20113081
H 0   1.84476711  0.99835301  5.26640679
C 0   1.85209408  2.83471440 -2.52173664
H 0   1.99204276  3.90893814 -2.54891016
C 0   1.78451558 -0.48541917  3.69307679
H 0   1.88194665 -1.33313772  4.36004668
C 0   1.82078502  2.12450650 -3.70328028
H 0   1.94570996  2.63327641 -4.65120146
C 0   1.67613360  3.13677656 -0.15449784
H 0   1.71854522  4.18090918 -0.44887282
C 0  -1.78413188 -0.48573282 -3.69314018
H 0  -1.88141589 -1.33350526 -4.36006394
C 0   1.59954011  2.91669446  1.17232838
H 0   1.58016505  3.80985499  1.78956641
C 0   1.46485931  0.11321235 -2.44144785
H 0   1.29755953 -0.95266380 -2.44465558
C 0   1.60650745  0.74590932 -3.65577389
H 0   1.54585256  0.16732892 -4.56946386

