%chk=opt.chk
%mem=4GB
%nprocshared=8
#p opt UM062X/6-311+G** nosymm int=superfine 

Title Card Required

0 1
C -1 -0.57006992  0.00000000  0.00000000
C -1  0.57006992 -0.00000000 -0.00000000
H 0 -1.05990270 -0.92138200 -0.00000000
H 0 -1.05712490  0.92570400 -0.00000000
H 0  1.05990270  0.92138200  0.00000000
H 0  1.05712490 -0.92570400  0.00000000

