%chk=opt.chk
%mem=4GB
%nprocshared=8
#p opt UM062X/6-311+G** nosymm int=superfine 

Title Card Required

0 1
C -1 -1.02082288  0.00000000  0.00000000
C -1  1.02082288 -0.00000000 -0.00000000
H 0 -1.89796530 -0.92138200 -0.00000000
H 0 -1.89299110  0.92570400 -0.00000000
H 0  1.89796530  0.92138200  0.00000000
H 0  1.89299110 -0.92570400  0.00000000

