%chk=opt.chk
%mem=24GB
%nprocshared=28
#p opt UM062X/6-311+G** nosymm int=superfine 

Title Card Required

1 2
C -1  -1.65489635  0.00000000  0.00000000
C -1   1.65489635  0.00000000 -0.00000000
C 0  -0.00000908 -2.05545100 -0.00218400
C 0  -0.00001816 -3.45663400 -0.00371000
C 0  -1.14275130 -4.28964700  0.19341900
C 0  -1.33380936 -1.46623300  0.16419700
C 0   0.67035593 -5.68273300 -0.12500700
H 0   1.30839628 -6.55103000 -0.24207000
C 0  -1.67548282  0.76445700  1.22074200
C 0  -0.67042553 -5.68298300  0.11278600
H 0  -1.30845377 -6.55152100  0.22810600
C 0   1.14270087 -4.28923100 -0.20263200
C 0   1.33378918 -1.46588400 -0.16727800
C 0   1.80120765  2.19168900 -1.33769900
C 0  -1.76862073  0.40953900 -1.37420600
C 0  -1.85751103  2.76908500  2.62285300
H 0  -1.97037197  3.84514500  2.68868800
C 0  -2.36818741 -3.70308600  0.41334100
H 0  -3.27805005 -4.27951100  0.58257000
C 0  -1.76079830  1.75683100 -1.86867700
C 0   2.43210038 -2.28649400 -0.38846300
H 0   3.41021137 -1.81328700 -0.50709000
C 0   1.76865301  0.40665600  1.37505900
C 0   1.76083562  1.75290300  1.87236300
C 0   2.36817329 -3.70220600 -0.42113800
H 0   3.27804501 -4.27827200 -0.59153800
C 0  -1.80142755  2.18886500  1.34229400
C 0  -1.52937123  0.04225000  2.44254900
H 0  -1.38653388 -1.02702500  2.40771200
C 0   1.84007270 -0.62790300  2.36195200
H 0   1.87543151 -1.65906400  2.04521500
C 0  -1.76654282  2.02407800  3.78017400
H 0  -1.82287141  2.50708000  4.74815100
C 0  -2.43210643 -2.28730400  0.38372300
H 0  -3.41020633 -1.81434400  0.50342700
C 0  -1.78277979  1.98025300 -3.26008800
H 0  -1.75846821  3.00602900 -3.60919500
C 0   1.67544449  0.76701800 -1.21914100
C 0  -1.80339047  3.13594400  0.25924100
H 0  -1.83110136  4.17143300  0.58431100
C 0  -1.85185426  0.95518900 -4.17545700
H 0  -1.88514122  1.17003200 -5.23669600
C 0  -1.75327847  2.95542500 -1.07578900
H 0  -1.73632633  3.86784300 -1.66423700
C 0   1.78301986  1.97339900  3.26423800
H 0   1.75874157  2.99843800  3.61550800
C 0  -1.58023572  0.64359400  3.67979400
H 0  -1.47344511  0.03773200  4.57151700
C 0  -1.83996678 -0.62294000 -2.36327900
H 0  -1.87538713 -1.65476100 -2.04870200
C 0   1.85223353  0.94641300  4.17744200
H 0   1.88569297  1.15903100  5.23912300
C 0   1.85729315  2.77460400 -2.61703400
H 0   1.97000883  3.85081600 -2.68059700
C 0   1.89802327 -0.37237300  3.71002300
H 0   1.97468717 -1.19837700  4.40661800
C 0   1.76651457  2.03201600 -3.77592100
H 0   1.82286637  2.51705500 -4.74287700
C 0   1.80294059  3.13649300 -0.25265600
H 0   1.83035694  4.17267000 -0.57555100
C 0  -1.89775395 -0.36457400 -3.71081600
H 0  -1.97438859 -1.18910900 -4.40915300
C 0   1.75299099  2.95316000  1.08199600
H 0   1.73589057  3.86433700  1.67236000
C 0   1.52944487  0.04736400 -2.44246500
H 0   1.38669426 -1.02199400 -2.40988200
C 0   1.58033760  0.65130400 -3.67844300
H 0   1.47366198  0.04729700 -4.57143800

