%chk=opt.chk
%mem=24GB
%nprocshared=32
#p opt UM062X/6-311+G** nosymm int=superfine

Title Card Required

1 2
C -1  -1.56932354  0.00000000 -0.00000000
C -1   1.56932354  0.00000000  0.00000000
C 0  -0.00000981 -2.10939150  0.00000000
C 0  -0.00004664 -3.49739450 -0.00002923
C 0  -1.24627873 -4.30978824  0.23683941
C 0  -1.39357066 -1.47743341  0.21180861
C 0   0.72822242 -5.70448148 -0.14037520
H 0   1.41239079 -6.57770083 -0.27590245
C 0  -1.71119911  0.79909228  1.19497871
C 0  -0.72835342 -5.70445753  0.14058092
H 0  -1.41254595 -6.57765518  0.27615289
C 0   1.24617560 -4.30982477 -0.23673149
C 0   1.39357670 -1.47746159 -0.21171188
C 0   1.89484495  2.22015782 -1.26414711
C 0  -1.74571045  0.36304969 -1.38863642
C 0  -2.05820332  2.83477859  2.52156339
H 0  -2.21395123  3.90897484  2.54870898
C 0  -2.56044361 -3.68593494  0.49420130
H 0  -3.56124362 -4.24085414  0.69215352
C 0  -1.77721752  1.69172550 -1.92531445
C 0   2.61051688 -2.26363507 -0.46776802
H 0   3.66328018 -1.77391050 -0.61586487
C 0   1.74567495  0.36320231  1.38856797
C 0   1.77702355  1.69192550  1.92515097
C 0   2.56042478 -3.68600507 -0.49384898
H 0   3.56124893 -4.24095586 -0.69161423
C 0  -1.89533460  2.22017516  1.26398248
C 0  -1.62725334  0.11335766  2.44139402
H 0  -1.44104060 -0.95247618  2.44459888
C 0   1.85669928 -0.69940635  2.34047366
H 0   1.87317079 -1.72224140  1.99670883
C 0  -2.02297886  2.12465651  3.70314913
H 0  -2.16167485  2.63347160  4.65105868
C 0  -2.61049223 -2.26355193  0.46808304
H 0  -3.66321245 -1.77379450  0.61631016
C 0  -1.85795332  1.87110722 -3.32211454
H 0  -1.85922895  2.88568909 -3.70323753
C 0   1.71112697  0.79902971 -1.19505569
C 0  -1.86344457  3.13669941  0.15424373
H 0  -1.91118225  4.18083977  0.44851673
C 0  -1.96442739  0.81743900 -4.20129371
H 0  -2.04884021  0.99791802 -5.26660776
C 0  -1.77817616  2.91654451 -1.17256652
H 0  -1.75717413  3.80967096 -1.78986703
C 0   1.85812971  1.87140379  3.32191113
H 0   1.85929062  2.88600091  3.70298763
C 0  -1.78457329  0.74609370  3.65570968
H 0  -1.71689067  0.16759911  4.56943471
C 0  -1.85658455 -0.69962065 -2.34049884
H 0  -1.87317956 -1.72243661 -1.99668506
C 0   1.96497674  0.81779202  4.20113081
H 0   2.04974123  0.99835301  5.26640679
C 0   2.05788231  2.83471440 -2.52173664
H 0   2.21338084  3.90893814 -2.54891016
C 0   1.98279509 -0.48541917  3.69307679
H 0   2.09105183 -1.33313772  4.36004668
C 0   2.02309447  2.12450650 -3.70328028
H 0   2.16189996  2.63327641 -4.65120146
C 0   1.86237066  3.13677656 -0.15449784
H 0   1.90949469  4.18090918 -0.44887282
C 0  -1.98236875 -0.48573282 -3.69314018
H 0  -2.09046210 -1.33350526 -4.36006394
C 0   1.77726679  2.91669446  1.17232838
H 0   1.75573894  3.80985499  1.78956641
C 0   1.62762146  0.11321235 -2.44144785
H 0   1.44173281 -0.95266380 -2.44465558
C 0   1.78500828  0.74590932 -3.65577389
H 0   1.71761395  0.16732892 -4.56946386

