%chk=opt.chk
%mem=24GB
%nprocshared=32
#p opt UM062X/6-311+G** nosymm int=superfine

Title Card Required

1 2
C -1  -1.58359011  0.00000000 -0.00000000
C -1   1.58359011  0.00000000  0.00000000
C 0  -0.00000990 -2.10939150  0.00000000
C 0  -0.00004706 -3.49739450 -0.00002923
C 0  -1.25760853 -4.30978824  0.23683941
C 0  -1.40623949 -1.47743341  0.21180861
C 0   0.73484262 -5.70448148 -0.14037520
H 0   1.42523071 -6.57770083 -0.27590245
C 0  -1.72675546  0.79909228  1.19497871
C 0  -0.73497481 -5.70445753  0.14058092
H 0  -1.42538727 -6.57765518  0.27615289
C 0   1.25750447 -4.30982477 -0.23673149
C 0   1.40624558 -1.47746159 -0.21171188
C 0   1.91207082  2.22015782 -1.26414711
C 0  -1.76158055  0.36304969 -1.38863642
C 0  -2.07691426  2.83477859  2.52156339
H 0  -2.23407806  3.90897484  2.54870898
C 0  -2.58372037 -3.68593494  0.49420130
H 0  -3.59361856 -4.24085414  0.69215352
C 0  -1.79337404  1.69172550 -1.92531445
C 0   2.63424885 -2.26363507 -0.46776802
H 0   3.69658273 -1.77391050 -0.61586487
C 0   1.76154473  0.36320231  1.38856797
C 0   1.79317830  1.69192550  1.92515097
C 0   2.58370137 -3.68600507 -0.49384898
H 0   3.59362392 -4.24095586 -0.69161423
C 0  -1.91256491  2.22017516  1.26398248
C 0  -1.64204655  0.11335766  2.44139402
H 0  -1.45414097 -0.95247618  2.44459888
C 0   1.87357837 -0.69940635  2.34047366
H 0   1.89019962 -1.72224140  1.99670883
C 0  -2.04136958  2.12465651  3.70314913
H 0  -2.18132643  2.63347160  4.65105868
C 0  -2.63422397 -2.26355193  0.46808304
H 0  -3.69651439 -1.77379450  0.61631016
C 0  -1.87484380  1.87110722 -3.32211454
H 0  -1.87613104  2.88568909 -3.70323753
C 0   1.72668267  0.79902971 -1.19505569
C 0  -1.88038498  3.13669941  0.15424373
H 0  -1.92855664  4.18083977  0.44851673
C 0  -1.98228582  0.81743900 -4.20129371
H 0  -2.06746603  0.99791802 -5.26660776
C 0  -1.79434140  2.91654451 -1.17256652
H 0  -1.77314844  3.80967096 -1.78986703
C 0   1.87502180  1.87140379  3.32191113
H 0   1.87619326  2.88600091  3.70298763
C 0  -1.80079668  0.74609370  3.65570968
H 0  -1.73249877  0.16759911  4.56943471
C 0  -1.87346260 -0.69962065 -2.34049884
H 0  -1.89020847 -1.72243661 -1.99668506
C 0   1.98284016  0.81779202  4.20113081
H 0   2.06837524  0.99835301  5.26640679
C 0   2.07659033  2.83471440 -2.52173664
H 0   2.23350248  3.90893814 -2.54891016
C 0   2.00082050 -0.48541917  3.69307679
H 0   2.11006139 -1.33313772  4.36004668
C 0   2.04148624  2.12450650 -3.70328028
H 0   2.18155360  2.63327641 -4.65120146
C 0   1.87930131  3.13677656 -0.15449784
H 0   1.92685373  4.18090918 -0.44887282
C 0  -2.00039029 -0.48573282 -3.69314018
H 0  -2.10946630 -1.33350526 -4.36006394
C 0   1.79342376  2.91669446  1.17232838
H 0   1.77170020  3.80985499  1.78956641
C 0   1.64241802  0.11321235 -2.44144785
H 0   1.45483947 -0.95266380 -2.44465558
C 0   1.80123563  0.74590932 -3.65577389
H 0   1.73322863  0.16732892 -4.56946386

