%chk=opt.chk
%mem=24GB
%nprocshared=32
#p opt UM062X/6-311+G** nosymm int=superfine

Title Card Required

1 2
C -1  -1.64065642  0.00000000 -0.00000000
C -1   1.64065642  0.00000000  0.00000000
C 0  -0.00001026 -2.10939150  0.00000000
C 0  -0.00004876 -3.49739450 -0.00002923
C 0  -1.30292776 -4.30978824  0.23683941
C 0  -1.45691478 -1.47743341  0.21180861
C 0   0.76132344 -5.70448148 -0.14037520
H 0   1.47659037 -6.57770083 -0.27590245
C 0  -1.78898088  0.79909228  1.19497871
C 0  -0.76146039 -5.70445753  0.14058092
H 0  -1.47675258 -6.57765518  0.27615289
C 0   1.30281995 -4.30982477 -0.23673149
C 0   1.45692110 -1.47746159 -0.21171188
C 0   1.98097427  2.22015782 -1.26414711
C 0  -1.82506092  0.36304969 -1.38863642
C 0  -2.15175802  2.83477859  2.52156339
H 0  -2.31458538  3.90897484  2.54870898
C 0  -2.67682741 -3.68593494  0.49420130
H 0  -3.72311833 -4.24085414  0.69215352
C 0  -1.85800013  1.69172550 -1.92531445
C 0   2.72917673 -2.26363507 -0.46776802
H 0   3.82979292 -1.77391050 -0.61586487
C 0   1.82502381  0.36320231  1.38856797
C 0   1.85779734  1.69192550  1.92515097
C 0   2.67680772 -3.68600507 -0.49384898
H 0   3.72312388 -4.24095586 -0.69161423
C 0  -1.98148617  2.22017516  1.26398248
C 0  -1.70121940  0.11335766  2.44139402
H 0  -1.50654245 -0.95247618  2.44459888
C 0   1.94109471 -0.69940635  2.34047366
H 0   1.95831492 -1.72224140  1.99670883
C 0  -2.11493244  2.12465651  3.70314913
H 0  -2.25993279  2.63347160  4.65105868
C 0  -2.72915096 -2.26355193  0.46808304
H 0  -3.82972211 -1.77379450  0.61631016
C 0  -1.94240574  1.87110722 -3.32211454
H 0  -1.94373936  2.88568909 -3.70323753
C 0   1.78890547  0.79902971 -1.19505569
C 0  -1.94814660  3.13669941  0.15424373
H 0  -1.99805417  4.18083977  0.44851673
C 0  -2.05371954  0.81743900 -4.20129371
H 0  -2.14196931  0.99791802 -5.26660776
C 0  -1.85900235  2.91654451 -1.17256652
H 0  -1.83704568  3.80967096 -1.78986703
C 0   1.94259015  1.87140379  3.32191113
H 0   1.94380383  2.88600091  3.70298763
C 0  -1.86569025  0.74609370  3.65570968
H 0  -1.79493116  0.16759911  4.56943471
C 0  -1.94097476 -0.69962065 -2.34049884
H 0  -1.95832409 -1.72243661 -1.99668506
C 0   2.05429386  0.81779202  4.20113081
H 0   2.14291129  0.99835301  5.26640679
C 0   2.15142241  2.83471440 -2.52173664
H 0   2.31398906  3.90893814 -2.54891016
C 0   2.07292214 -0.48541917  3.69307679
H 0   2.18609964 -1.33313772  4.36004668
C 0   2.11505331  2.12450650 -3.70328028
H 0   2.26016814  2.63327641 -4.65120146
C 0   1.94702388  3.13677656 -0.15449784
H 0   1.99628990  4.18090918 -0.44887282
C 0  -2.07247642 -0.48573282 -3.69314018
H 0  -2.18548310 -1.33350526 -4.36006394
C 0   1.85805164  2.91669446  1.17232838
H 0   1.83554526  3.80985499  1.78956641
C 0   1.70160425  0.11321235 -2.44144785
H 0   1.50726612 -0.95266380 -2.44465558
C 0   1.86614502  0.74590932 -3.65577389
H 0   1.79568731  0.16732892 -4.56946386

