%oldchk=../00075/opt.chk
%chk=opt.chk
%mem=4GB
%nprocshared=8
#p opt UM062X/6-311+G** nosymm int=superfine SCF=(MaxCycle=200,NoVarAcc,noincfock) guess=read

Title Card Required

0 1
B -1  -1.052734   -0.000000   -0.000000
N -1  1.052734   -0.000000   -0.000000
H  0  -2.242612   0.000000   -0.000000
H  0  1.163108   1.020528   -0.072347


