%oldchk=../00110/opt.chk
%chk=opt.chk
%mem=4GB
%nprocshared=8
#p opt UM062X/6-311+G** nosymm int=superfine SCF=(MaxCycle=200,NoVarAcc,noincfock) guess=read

Title Card Required

1 2
B -1  -1.177734   0.000000   0.000000
N -1  1.177734   0.000000   0.000000
H  0  -2.372130   -0.010172   0.000000
H  0  2.218518   -0.015594   0.000000

