%oldchk=force.chk
%chk=nbo.chk
#p UM062X/6-311+G** Pop=NBO Read

NBO Analysis

0 1
B -0.69539900  0.00000000 -0.00000000
N  0.69539900 -0.00000000  0.00000000
H -1.27041962 -1.04183080 -0.00000000
H  1.24676246  0.84339581 -0.00011191
H -1.27041938  1.04182927 -0.00024861
H  1.24676055 -0.84339625  0.00010849

$NBO
ARCHIVE FILE=ethane_nbo.47
$END


