%chk=opt.chk
%mem=4GB
%nprocshared=8
#p UM062X/6-31+G** freq=raman int=superfine 

Title Card Required

1 2
C   0.000000    0.701158    0.000000
C   0.000000   -0.701158    0.000000
H   0.920317    1.257996   -0.164109
H  -0.920317    1.257997    0.164109
H  -0.920317   -1.257996   -0.164109
H   0.920317   -1.257997    0.164109

