%chk=opt.chk
%mem=24GB
%nprocshared=28
#p opt UM062X/6-311+G** nosymm int=superfine SCF=(Tight,MaxCycle=200)

Title Card Required

1 2
C -1  -1.15564129  0.00000000  0.00000000
C -1   1.15564129  0.00000000 -0.00000000
C 0   0.00000858 -2.15641600  0.00035500
C 0   0.00001620 -3.53176600  0.00057200
C 0  -1.07741912 -4.32427500  0.27970800
C 0  -1.15472361 -1.48110800  0.26120100
C 0   0.62718776 -5.72058700 -0.16372700
H 0   1.20944245 -6.59818100 -0.31972100
C 0  -1.40266271  0.83924400  1.16049800
C 0  -0.62740980 -5.72054000  0.16439000
H 0  -1.20975882 -6.59809200  0.32024000
C 0   1.07734669 -4.32435700 -0.27879900
C 0   1.15469884 -1.48115600 -0.26092300
C 0   1.59266298  2.25440400 -1.16868900
C 0  -1.40200136  0.30603300 -1.40736600
C 0  -1.79908052  2.91080500  2.39776700
H 0  -1.95124902  3.98261000  2.37971100
C 0  -2.19426999 -3.66420300  0.57630300
H 0  -3.06635315 -4.19797000  0.80625700
C 0  -1.48045796  1.60942100 -1.98926600
C 0   2.22138784 -2.23542700 -0.55533500
H 0   3.12141886 -1.73401000 -0.73946300
C 0   1.40217956  0.30612000  1.40730900
C 0   1.48050371  1.60950600  1.98921100
C 0   2.19411942 -3.66436000 -0.57587200
H 0   3.06611111 -4.19817900 -0.80608800
C 0  -1.59332622  2.25426600  1.16871200
C 0  -1.39502107  0.19487900  2.42776200
H 0  -1.21957698 -0.86727000  2.47572600
C 0   1.52999280 -0.78817100  2.31078900
H 0   1.51179067 -1.80013300  1.93766400
C 0  -1.81326314  2.24305700  3.60206400
H 0  -1.97926073  2.78230300  4.52521400
C 0  -2.22149361 -2.23527500  0.55555000
H 0  -3.12154751 -1.73379100  0.73935900
C 0  -1.61853152  1.73853600 -3.38703700
H 0  -1.65715327  2.73906600 -3.80157800
C 0   1.40259886  0.83928600 -1.16052200
C 0  -1.54943661  3.13328800  0.02989000
H 0  -1.59594776  4.18685100  0.28738700
C 0  -1.73320084  0.65295200 -4.22298900
H 0  -1.85732428  0.79238800 -5.28919700
C 0  -1.47264194  2.86449500 -1.28690100
H 0  -1.46075114  3.73278800 -1.93870900
C 0   1.61923193  1.73861300  3.38691600
H 0   1.65781461  2.73914300  3.80146400
C 0  -1.59770022  0.86412900  3.61171400
H 0  -1.58010512  0.31624300  4.54594900
C 0  -1.52936291 -0.78825600 -2.31093200
H 0  -1.51117507 -1.80022700 -1.93784700
C 0   1.73448731  0.65303000  4.22277600
H 0   1.85909866  0.79245400  5.28892300
C 0   1.79838201  2.91106900 -2.39767900
H 0   1.95004736  3.98295200 -2.37956000
C 0   1.70486513 -0.62738900  3.66585200
H 0   1.81629540 -1.50257400  4.29316200
C 0   1.81312115  2.24335300 -3.60198400
H 0   1.97912541  2.78267900 -4.52508500
C 0   1.54801006  3.13343700 -0.02990000
H 0   1.59359114  4.18703300 -0.28744400
C 0  -1.70371207 -0.62746600 -3.66607200
H 0  -1.81480024 -1.50265200 -4.29345000
C 0   1.47166232  2.86460000  1.28690700
H 0   1.45921500  3.73287300  1.93872900
C 0   1.39529266  0.19499300 -2.42782300
H 0   1.22005821 -0.86718000 -2.47590300
C 0   1.59800802  0.86435600 -3.61171000
H 0   1.58075884  0.31649400 -4.54596700

