%oldchk=force.chk
%chk=nbo.chk
#p UM062X/6-311+G** Pop=NBO Read

NBO Analysis

0 1
C -0.63163709  0.00000000  0.00000000
N  0.63163709  0.00000000 -0.00000000
H -1.25329661 -0.90066143 -0.00000000
H  0.99286972 -0.95581883 -0.00012569
H -1.15816940  0.95471893 -0.00010966

$NBO
ARCHIVE FILE=ethane_nbo.47
$END


