%chk=opt.chk
%mem=4GB
%nprocshared=8
#p opt UM062X/6-311+G** nosymm int=superfine

Title Card Required

0 1
Si -1 -1.41251800  0.00000000  0.00000000
Si -1  1.41251800 -0.00000000  0.00000000
H  0 -2.19341211 -1.24876948  0.00000000
H  0  2.19341211  1.24876850 -0.00078300
H  0 -2.19342291  1.24877653  0.00014200
H  0  2.19342291 -1.24877557  0.00092500

