%chk=opt.chk
%mem=4GB
%nprocshared=8
#p opt UM062X/6-311+G** nosymm int=superfine

Title Card Required

0 1
Si -1  -1.612518   0.000000   0.000000
Si -1  1.612518   0.000000   0.000000
H  0  -2.400266   -1.143250   0.578368
H  0  1.806013   1.109202   -1.006393
H  0  -2.454468   1.108610   0.568973
H  0  1.827695   -1.124876   -0.985136

