%chk=opt.chk
%mem=4GB
%nprocshared=8
#p opt UM062X/6-311+G** nosymm int=superfine

Title Card Required

0 1
Si -1  -1.787518   0.000000   0.000000
Si -1  1.787518   0.000000   0.000000
H  0  -1.556776   -1.139398   0.977285
H  0  2.799694   1.115549   0.044749
H  0  -1.550695   1.045563   1.075706
H  0  2.813862   -1.102579   -0.043586

