%chk=opt.chk
%mem=4GB
%nprocshared=8
#p UM062X/6-311+G** force int=superfine 

Title Card Required

0 1
C   -0.397723   0.000000   0.000000
C   0.397723   0.000000   0.000000
H   -1.113968   -0.850709   -0.000000
H   -1.113911   0.850879   -0.000000
H   1.113968   0.850709   0.000000
H   1.113911   -0.850879   0.000000

