%chk=opt.chk
%mem=4GB
%nprocshared=8
#p UM062X/6-311+G** force int=superfine 

Title Card Required

0 1
C   -0.417609   0.000000   0.000000
C   0.417609   0.000000   0.000000
H   -1.116075   -0.860848   0.000000
H   -1.116060   0.860859   0.000000
H   1.116075   0.860848   -0.000000
H   1.116060   -0.860859   0.000000

