%chk=opt.chk
%mem=4GB
%nprocshared=8
#p UM062X/6-311+G** force int=superfine 

Title Card Required

0 1
C   -0.444124   0.000000   0.000000
C   0.444124   0.000000   0.000000
H   -1.121356   -0.870875   0.000000
H   -1.121380   0.870815   0.000000
H   1.121356   0.870875   -0.000000
H   1.121380   -0.870815   0.000000

