%chk=opt.chk
%mem=4GB
%nprocshared=8
#p UM062X/6-311+G** force int=superfine 

Title Card Required

0 1
C   -0.457382   0.000000   0.000000
C   0.457382   0.000000   0.000000
H   -1.125002   -0.875612   0.000000
H   -1.125058   0.875470   -0.000000
H   1.125002   0.875612   -0.000000
H   1.125058   -0.875470   0.000000

