%chk=opt.chk
%mem=4GB
%nprocshared=8
#p UM062X/6-311+G** force int=superfine 

Title Card Required

0 1
C   -0.470639   0.000000   0.000000
C   0.470639   0.000000   0.000000
H   -1.129308   -0.879997   0.000000
H   -1.129362   0.879869   0.000000
H   1.129308   0.879997   -0.000000
H   1.129362   -0.879869   -0.000000

