%chk=opt.chk
%mem=4GB
%nprocshared=8
#p UM062X/6-311+G** force int=superfine 

Title Card Required

0 1
C   -0.483897   0.000000   0.000000
C   0.483897   0.000000   0.000000
H   -1.134134   -0.883750   -0.000000
H   -1.134056   0.883928   0.000000
H   1.134134   0.883750   -0.000000
H   1.134056   -0.883928   -0.000000

