%chk=opt.chk
%mem=4GB
%nprocshared=8
#p UM062X/6-311+G** force int=superfine 

Title Card Required

0 1
C   -0.490525   0.000000   0.000000
C   0.490525   0.000000   0.000000
H   -1.136800   -0.885722   -0.000000
H   -1.136732   0.885874   -0.000000
H   1.136800   0.885722   0.000000
H   1.136732   -0.885874   0.000000

