%chk=opt.chk
%mem=4GB
%nprocshared=8
#p UM062X/6-311+G** force int=superfine 

Title Card Required

0 1
C   -0.497154   0.000000   0.000000
C   0.497154   0.000000   0.000000
H   -1.139566   -0.887633   -0.000000
H   -1.139507   0.887763   -0.000000
H   1.139566   0.887633   0.000000
H   1.139507   -0.887763   0.000000

