%chk=opt.chk
%mem=4GB
%nprocshared=8
#p UM062X/6-311+G** force int=superfine 

Title Card Required

0 1
C   -0.510411   0.000000   0.000000
C   0.510411   0.000000   0.000000
H   -1.145380   -0.891292   -0.000000
H   -1.145337   0.891383   -0.000000
H   1.145380   0.891292   0.000000
H   1.145337   -0.891383   0.000000

