%chk=opt.chk
%mem=4GB
%nprocshared=8
#p UM062X/6-311+G** force int=superfine 

Title Card Required

0 1
C   -0.523669   0.000000   0.000000
C   0.523669   0.000000   0.000000
H   -1.151547   -0.894170   0.000000
H   -1.151473   0.894348   0.000000
H   1.151547   0.894170   -0.000000
H   1.151473   -0.894348   -0.000000

