%chk=opt.chk
%mem=4GB
%nprocshared=8
#p UM062X/6-311+G** force int=superfine 

Title Card Required

0 1
C   -0.583327   0.000000   0.000000
C   0.583327   0.000000   0.000000
H   -1.182795   -0.908564   0.000000
H   -1.182805   0.908538   0.000000
H   1.182795   0.908564   -0.000000
H   1.182805   -0.908538   -0.000000

