%chk=opt.chk
%mem=4GB
%nprocshared=8
#p UM062X/6-311+G** force int=superfine 

Title Card Required

0 1
C   -0.589956   0.000000   0.000000
C   0.589956   0.000000   0.000000
H   -1.186561   -0.909923   -0.000000
H   -1.186575   0.909894   -0.000000
H   1.186561   0.909923   0.000000
H   1.186575   -0.909894   0.000000

