%chk=opt.chk
%mem=4GB
%nprocshared=8
#p UM062X/6-311+G** force int=superfine 

Title Card Required

0 1
C   -0.603214   0.000000   0.000000
C   0.603214   0.000000   0.000000
H   -1.194132   -0.913251   -0.000000
H   -1.194248   0.913119   -0.000000
H   1.194132   0.913251   0.000000
H   1.194248   -0.913119   0.000000

