%chk=opt.chk
%mem=4GB
%nprocshared=8
#p UM062X/6-311+G** force int=superfine 

Title Card Required

0 1
C   -0.609842   0.000000   0.000000
C   0.609842   0.000000   0.000000
H   -1.197925   -0.914562   0.000000
H   -1.198046   0.914424   0.000000
H   1.197925   0.914562   -0.000000
H   1.198046   -0.914424   -0.000000

