%chk=opt.chk
%mem=4GB
%nprocshared=8
#p UM062X/6-311+G** force int=superfine 

Title Card Required

0 1
C   -0.636357   0.000000   0.000000
C   0.636357   0.000000   0.000000
H   -1.213811   -0.919369   -0.000000
H   -1.213940   0.919218   -0.000000
H   1.213811   0.919369   0.000000
H   1.213940   -0.919218   0.000000

