%chk=opt.chk
%mem=4GB
%nprocshared=8
#p UM062X/6-311+G** force int=superfine 

Title Card Required

0 1
C   -0.669501   0.000000   0.000000
C   0.669501   0.000000   0.000000
H   -1.235191   -0.924515   0.000000
H   -1.235303   0.924385   0.000000
H   1.235191   0.924515   -0.000000
H   1.235303   -0.924385   -0.000000

