%chk=opt.chk
%mem=4GB
%nprocshared=8
#p UM062X/6-311+G** force int=superfine 

Title Card Required

0 1
C   -0.682758   0.000000   0.000000
C   0.682758   0.000000   0.000000
H   -1.244176   -0.926340   0.000000
H   -1.244287   0.926210   0.000000
H   1.244176   0.926340   -0.000000
H   1.244287   -0.926210   -0.000000

