%chk=opt.chk
%mem=4GB
%nprocshared=8
#p UM062X/6-311+G** force int=superfine 

Title Card Required

0 1
C   -0.709273   0.000000   0.000000
C   0.709273   0.000000   0.000000
H   -1.260926   -0.931333   0.000000
H   -1.260986   0.931291   0.000000
H   1.260926   0.931333   0.000000
H   1.260986   -0.931291   0.000000

