%chk=opt.chk
%mem=4GB
%nprocshared=8
#p UM062X/6-311+G** force int=superfine 

Title Card Required

0 1
C   -0.715902   0.000000   0.000000
C   0.715902   0.000000   0.000000
H   -1.265318   -0.932414   -0.000000
H   -1.265382   0.932371   -0.000000
H   1.265318   0.932414   0.000000
H   1.265382   -0.932371   0.000000

