%chk=opt.chk
%mem=4GB
%nprocshared=8
#p UM062X/6-311+G** force int=superfine 

Title Card Required

0 1
C   -0.722530   0.000000   0.000000
C   0.722530   0.000000   0.000000
H   -1.269731   -0.933487   -0.000000
H   -1.269799   0.933444   -0.000000
H   1.269731   0.933487   0.000000
H   1.269799   -0.933444   0.000000

