%chk=opt.chk
%mem=4GB
%nprocshared=8
#p UM062X/6-311+G** force int=superfine 

Title Card Required

0 1
C   -0.742417   0.000000   0.000000
C   0.742417   0.000000   0.000000
H   -1.283078   -0.936661   -0.000000
H   -1.283160   0.936615   -0.000000
H   1.283078   0.936661   0.000000
H   1.283160   -0.936615   0.000000

