%chk=opt.chk
%mem=4GB
%nprocshared=8
#p UM062X/6-311+G** force int=superfine 

Title Card Required

0 1
C   -0.749045   0.000000   0.000000
C   0.749045   0.000000   0.000000
H   -1.287562   -0.937704   0.000000
H   -1.287650   0.937657   0.000000
H   1.287562   0.937704   -0.000000
H   1.287650   -0.937657   -0.000000

