%chk=opt.chk
%mem=4GB
%nprocshared=8
#p UM062X/6-311+G** force int=superfine 

Title Card Required

0 1
C   -0.768932   0.000000   0.000000
C   0.768932   0.000000   0.000000
H   -1.301113   -0.940791   -0.000000
H   -1.301220   0.940741   0.000000
H   1.301113   0.940791   -0.000000
H   1.301220   -0.940741   -0.000000

