%chk=opt.chk
%mem=4GB
%nprocshared=8
#p UM062X/6-311+G** force int=superfine 

Title Card Required

0 1
C   -0.782189   0.000000   0.000000
C   0.782189   0.000000   0.000000
H   -1.310254   -0.942768   -0.000000
H   -1.310378   0.942717   0.000000
H   1.310254   0.942768   -0.000000
H   1.310378   -0.942717   0.000000

