%chk=opt.chk
%mem=4GB
%nprocshared=8
#p UM062X/6-311+G** force int=superfine 

Title Card Required

0 1
C   -0.788818   0.000000   0.000000
C   0.788818   0.000000   0.000000
H   -1.314956   -0.943597   0.000000
H   -1.315094   0.943546   0.000000
H   1.314956   0.943597   -0.000000
H   1.315094   -0.943546   -0.000000

