%chk=opt.chk
%mem=4GB
%nprocshared=8
#p UM062X/6-311+G** force int=superfine 

Title Card Required

0 1
C   -0.808704   0.000000   0.000000
C   0.808704   0.000000   0.000000
H   -1.328531   -0.946789   -0.000000
H   -1.328548   0.946755   -0.000000
H   1.328531   0.946789   -0.000000
H   1.328548   -0.946755   -0.000000

