%chk=opt.chk
%mem=4GB
%nprocshared=8
#p UM062X/6-311+G** force int=superfine 

Title Card Required

0 1
C   -0.815333   0.000000   0.000000
C   0.815333   0.000000   0.000000
H   -1.333145   -0.947764   0.000000
H   -1.333162   0.947725   0.000000
H   1.333145   0.947764   0.000000
H   1.333162   -0.947725   0.000000

