%chk=opt.chk
%mem=4GB
%nprocshared=8
#p UM062X/6-311+G** force int=superfine 

Title Card Required

0 1
C   -0.821961   0.000000   0.000000
C   0.821961   0.000000   0.000000
H   -1.337760   -0.948726   0.000000
H   -1.337777   0.948681   0.000000
H   1.337760   0.948726   -0.000000
H   1.337777   -0.948681   0.000000

