%chk=opt.chk
%mem=4GB
%nprocshared=8
#p UM062X/6-311+G** force int=superfine 

Title Card Required

0 1
C   -0.828590   0.000000   0.000000
C   0.828590   0.000000   0.000000
H   -1.342398   -0.949688   -0.000000
H   -1.342415   0.949638   -0.000000
H   1.342398   0.949688   0.000000
H   1.342415   -0.949638   -0.000000

