%chk=opt.chk
%mem=4GB
%nprocshared=8
#p UM062X/6-311+G** force int=superfine 

Title Card Required

0 1
C   -0.841847   0.000000   0.000000
C   0.841847   0.000000   0.000000
H   -1.351706   -0.951590   0.000000
H   -1.351723   0.951528   -0.000000
H   1.351706   0.951590   0.000000
H   1.351723   -0.951528   -0.000000

