%chk=opt.chk
%mem=4GB
%nprocshared=8
#p UM062X/6-311+G** force int=superfine 

Title Card Required

0 1
C   -0.848476   0.000000   0.000000
C   0.848476   0.000000   0.000000
H   -1.356350   -0.952520   0.000000
H   -1.356371   0.952450   0.000000
H   1.356351   0.952520   0.000000
H   1.356371   -0.952450   0.000000

