%chk=opt.chk
%mem=4GB
%nprocshared=8
#p UM062X/6-311+G** force int=superfine 

Title Card Required

0 1
C   -0.855105   0.000000   0.000000
C   0.855105   0.000000   0.000000
H   -1.361021   -0.953448   -0.000000
H   -1.361042   0.953372   0.000000
H   1.361021   0.953448   0.000000
H   1.361042   -0.953372   0.000000

