%chk=opt.chk
%mem=4GB
%nprocshared=8
#p UM062X/6-311+G** force int=superfine 

Title Card Required

0 1
C   -0.861734   0.000000   0.000000
C   0.861734   0.000000   0.000000
H   -1.365698   -0.954367   -0.000000
H   -1.365720   0.954284   -0.000000
H   1.365698   0.954367   -0.000000
H   1.365720   -0.954284   -0.000000

