%chk=opt.chk
%mem=4GB
%nprocshared=8
#p UM062X/6-311+G** force int=superfine 

Title Card Required

0 1
C   -0.888248   0.000000   0.000000
C   0.888248   0.000000   0.000000
H   -1.384448   -0.957944   -0.000000
H   -1.384478   0.957837   0.000000
H   1.384448   0.957944   -0.000000
H   1.384478   -0.957837   0.000000

