%chk=opt.chk
%mem=4GB
%nprocshared=8
#p UM062X/6-311+G** force int=superfine 

Title Card Required

0 1
C   -0.894877   0.000000   0.000000
C   0.894877   0.000000   0.000000
H   -1.389140   -0.958811   0.000000
H   -1.389172   0.958699   0.000000
H   1.389140   0.958811   0.000000
H   1.389172   -0.958699   0.000000

