%chk=opt.chk
%mem=4GB
%nprocshared=8
#p UM062X/6-311+G** force int=superfine 

Title Card Required

0 1
C   -0.941278   0.000000   0.000000
C   0.941278   0.000000   0.000000
H   -1.423124   -0.964974   -0.000000
H   -1.423124   0.964968   0.000000
H   1.423124   0.964974   -0.000000
H   1.423124   -0.964968   0.000000

