%chk=opt.chk
%mem=4GB
%nprocshared=8
#p UM062X/6-311+G** force int=superfine 

Title Card Required

0 1
C   -0.961164   0.000000   0.000000
C   0.961164   0.000000   0.000000
H   -1.437728   -0.967457   0.000000
H   -1.437713   0.967454   -0.000000
H   1.437728   0.967457   0.000000
H   1.437713   -0.967454   -0.000000

