%chk=opt.chk
%mem=4GB
%nprocshared=8
#p UM062X/6-311+G** force int=superfine 

Title Card Required

0 1
C   -0.981051   0.000000   0.000000
C   0.981051   0.000000   0.000000
H   -1.452464   -0.970006   0.000000
H   -1.452438   0.970003   -0.000000
H   1.452464   0.970006   0.000000
H   1.452438   -0.970003   -0.000000

