%chk=opt.chk
%mem=4GB
%nprocshared=8
#p UM062X/6-311+G** force int=superfine 

Title Card Required

0 1
C   -0.987679   0.000000   0.000000
C   0.987679   0.000000   0.000000
H   -1.457415   -0.970960   0.000000
H   -1.457391   0.970955   0.000000
H   1.457415   0.970960   0.000000
H   1.457391   -0.970955   0.000000

