%chk=opt.chk
%mem=4GB
%nprocshared=8
#p UM062X/6-311+G** force int=superfine 

Title Card Required

0 1
C   -0.994308   0.000000   0.000000
C   0.994308   0.000000   0.000000
H   -1.462381   -0.971906   0.000000
H   -1.462360   0.971902   -0.000000
H   1.462381   0.971906   0.000000
H   1.462360   -0.971901   0.000000

