%chk=opt.chk
%mem=4GB
%nprocshared=8
#p UM062X/6-311+G** force int=superfine 

Title Card Required

0 1
C   -1.000937   0.000000   0.000000
C   1.000937   0.000000   0.000000
H   -1.467172   -0.972092   -0.000000
H   -1.467164   0.972100   -0.000000
H   1.467172   0.972092   -0.000000
H   1.467164   -0.972100   -0.000000

