%chk=opt.chk
%mem=4GB
%nprocshared=8
#p UM062X/6-311+G** force int=superfine 

Title Card Required

0 1
C   -1.014194   0.000000   0.000000
C   1.014194   0.000000   0.000000
H   -1.477109   -0.973604   0.000000
H   -1.477097   0.973603   0.000000
H   1.477109   0.973603   0.000000
H   1.477097   -0.973603   0.000000

