%chk=opt.chk
%mem=4GB
%nprocshared=8
#p UM062X/6-311+G** force int=superfine 

Title Card Required

0 1
C   -1.027452   0.000000   0.000000
C   1.027452   0.000000   0.000000
H   -1.487380   -0.974560   0.000000
H   -1.487290   0.974531   0.000000
H   1.487380   0.974560   -0.000000
H   1.487290   -0.974531   -0.000000

