%chk=opt.chk
%mem=4GB
%nprocshared=8
#p UM062X/6-311+G** force int=superfine 

Title Card Required

0 1
C   -1.034080   0.000000   0.000000
C   1.034080   0.000000   0.000000
H   -1.491986   -0.975605   0.000000
H   -1.492001   0.975700   0.000000
H   1.491986   0.975605   -0.000000
H   1.492001   -0.975700   -0.000000

