%chk=opt.chk
%mem=4GB
%nprocshared=8
#p UM062X/6-311+G** force int=superfine 

Title Card Required

0 1
C   -1.053966   0.000000   0.000000
C   1.053966   0.000000   0.000000
H   -1.507226   -0.977993   -0.000000
H   -1.507158   0.977914   -0.000000
H   1.507226   0.977993   0.000000
H   1.507158   -0.977914   0.000000

