%chk=opt.chk
%mem=4GB
%nprocshared=8
#p UM062X/6-311+G** force int=superfine 

Title Card Required

0 1
C   -1.060595   0.000000   0.000000
C   1.060595   0.000000   0.000000
H   -1.512265   -0.978710   0.000000
H   -1.512181   0.978605   0.000000
H   1.512265   0.978710   -0.000000
H   1.512181   -0.978605   -0.000000

