%chk=opt.chk
%mem=24GB
%nprocshared=28
#p opt UM062X/6-311+G** nosymm int=superfine 

Title Card Required

1 2
C -1  -1.86888127  0.00000000 -0.00000000
C -1   1.86888127  0.00000000 -0.00000000
C 0  -0.00014410 -1.98856500 -0.00626500
C 0   0.00001411 -3.39883100 -0.01071700
C 0  -1.12812968 -4.24606900  0.22573300
C 0  -1.35996038 -1.42477300  0.18087700
C 0   0.66365003 -5.63715200 -0.16281300
H 0   1.30011152 -6.50179000 -0.30831200
C 0  -1.88632442  0.78920500  1.20146600
C 0  -0.66325602 -5.63816300  0.12703300
H 0  -1.29960767 -6.50380800  0.26692800
C 0   1.12828990 -4.24438900 -0.25267800
C 0   1.35958249 -1.42348500 -0.19007300
C 0   2.37248961  2.14234500 -1.32746000
C 0  -2.12806175  0.35445900 -1.36980700
C 0  -2.33525034  2.75022300  2.60467900
H 0  -2.72105743  3.76040100  2.68886500
C 0  -2.34926129 -3.68227900  0.49339100
H 0  -3.24230442 -4.27011000  0.70123600
C 0  -2.54762653  1.63923000 -1.85430600
C 0   2.42833592 -2.26839800 -0.46237000
H 0   3.41113218 -1.81229400 -0.59929500
C 0   2.12808392  0.34580200  1.37186900
C 0   2.54885390  1.62727300  1.86419900
C 0   2.34927540 -3.67874100 -0.51698800
H 0   3.24238302 -4.26508000 -0.72872400
C 0  -2.36888812  2.13502500  1.34065100
C 0  -1.36623125  0.17930900  2.38518300
H 0  -0.99307170 -0.83322500  2.33620100
C 0   1.91817959 -0.66985100  2.35708400
H 0   1.65308396 -1.66852200  2.04270600
C 0  -1.82292748  2.12232200  3.72278700
H 0  -1.81191743  2.63208100  4.67823000
C 0  -2.42856063 -2.27164700  0.44763000
H 0  -3.41143247 -1.81652600  0.58725300
C 0  -2.65655303  1.84911600 -3.24158500
H 0  -2.96598208  2.83007500 -3.58446800
C 0   1.88682122  0.79678700 -1.19631800
C 0  -2.88256128  2.96691100  0.28298800
H 0  -3.24943283  3.93177600  0.62145700
C 0  -2.40694462  0.85593900 -4.16481800
H 0  -2.51145239  1.05634400 -5.22425100
C 0  -2.93074107  2.77043900 -1.04890800
H 0  -3.32475078  3.60329000 -1.62464100
C 0   2.65670519  1.82886600  3.25283500
H 0   2.96686281  2.80743600  3.60182900
C 0  -1.32457325  0.82120100  3.60110800
H 0  -0.91264274  0.30660300  4.46211700
C 0  -1.91965485 -0.65537200 -2.36124400
H 0  -1.65518198 -1.65615300 -2.05310600
C 0   2.40523961  0.83046500  4.16983900
H 0   2.50889991  1.02450400  5.23054200
C 0   2.33967512  2.76528700 -2.58776500
H 0   2.72810624  3.77493500 -2.66614300
C 0   2.05279822 -0.44137400  3.70613100
H 0   1.88777046 -1.25390600  4.40380800
C 0   1.82461335  2.14556700 -3.70912400
H 0   1.81407087  2.66123700 -4.66140000
C 0   2.88826281  2.96658800 -0.26502200
H 0   3.25775536  3.93248100 -0.59768800
C 0  -2.05510785 -0.41881300 -3.70888900
H 0  -1.89129738 -1.22739400 -4.41143000
C 0   2.93486455  2.76231300  1.06583900
H 0   3.33019332  3.59095800  1.64672700
C 0   1.36406068  0.19544800 -2.38328500
H 0   0.98838492 -0.81642800 -2.34013300
C 0   1.32268785  0.84503700 -3.59505800
H 0   0.90823812  0.33701200 -4.45876200

