%chk=opt.chk
%mem=24GB
%nprocshared=32
#p opt UM062X/6-311+G** nosymm int=superfine

Title Card Required

1 2
C -1  -1.62638985  0.00000000 -0.00000000
C -1   1.62638985  0.00000000  0.00000000
C 0  -0.00001017 -2.10939150  0.00000000
C 0  -0.00004834 -3.49739450 -0.00002923
C 0  -1.29159795 -4.30978824  0.23683941
C 0  -1.44424596 -1.47743341  0.21180861
C 0   0.75470323 -5.70448148 -0.14037520
H 0   1.46375046 -6.57770083 -0.27590245
C 0  -1.77342453  0.79909228  1.19497871
C 0  -0.75483900 -5.70445753  0.14058092
H 0  -1.46391126 -6.57765518  0.27615289
C 0   1.29149108 -4.30982477 -0.23673149
C 0   1.44425222 -1.47746159 -0.21171188
C 0   1.96374840  2.22015782 -1.26414711
C 0  -1.80919083  0.36304969 -1.38863642
C 0  -2.13304708  2.83477859  2.52156339
H 0  -2.29445855  3.90897484  2.54870898
C 0  -2.65355065 -3.68593494  0.49420130
H 0  -3.69074339 -4.24085414  0.69215352
C 0  -1.84184361  1.69172550 -1.92531445
C 0   2.70544476 -2.26363507 -0.46776802
H 0   3.79649037 -1.77391050 -0.61586487
C 0   1.80915404  0.36320231  1.38856797
C 0   1.84164258  1.69192550  1.92515097
C 0   2.65353113 -3.68600507 -0.49384898
H 0   3.69074889 -4.24095586 -0.69161423
C 0  -1.96425585  2.22017516  1.26398248
C 0  -1.68642619  0.11335766  2.44139402
H 0  -1.49344208 -0.95247618  2.44459888
C 0   1.92421562 -0.69940635  2.34047366
H 0   1.94128610 -1.72224140  1.99670883
C 0  -2.09654173  2.12465651  3.70314913
H 0  -2.24028120  2.63347160  4.65105868
C 0  -2.70541922 -2.26355193  0.46808304
H 0  -3.79642018 -1.77379450  0.61631016
C 0  -1.92551526  1.87110722 -3.32211454
H 0  -1.92683728  2.88568909 -3.70323753
C 0   1.77334977  0.79902971 -1.19505569
C 0  -1.93120619  3.13669941  0.15424373
H 0  -1.98067979  4.18083977  0.44851673
C 0  -2.03586111  0.81743900 -4.20129371
H 0  -2.12334349  0.99791802 -5.26660776
C 0  -1.84283711  2.91654451 -1.17256652
H 0  -1.82107137  3.80967096 -1.78986703
C 0   1.92569807  1.87140379  3.32191113
H 0   1.92690119  2.88600091  3.70298763
C 0  -1.84946686  0.74609370  3.65570968
H 0  -1.77932306  0.16759911  4.56943471
C 0  -1.92409672 -0.69962065 -2.34049884
H 0  -1.94129518 -1.72243661 -1.99668506
C 0   2.03643044  0.81779202  4.20113081
H 0   2.12427728  0.99835301  5.26640679
C 0   2.13271439  2.83471440 -2.52173664
H 0   2.29386742  3.90893814 -2.54891016
C 0   2.05489673 -0.48541917  3.69307679
H 0   2.16709008 -1.33313772  4.36004668
C 0   2.09666154  2.12450650 -3.70328028
H 0   2.24051450  2.63327641 -4.65120146
C 0   1.93009323  3.13677656 -0.15449784
H 0   1.97893086  4.18090918 -0.44887282
C 0  -2.05445489 -0.48573282 -3.69314018
H 0  -2.16647890 -1.33350526 -4.36006394
C 0   1.84189467  2.91669446  1.17232838
H 0   1.81958399  3.80985499  1.78956641
C 0   1.68680769  0.11321235 -2.44144785
H 0   1.49415946 -0.95266380 -2.44465558
C 0   1.84991767  0.74590932 -3.65577389
H 0   1.78007264  0.16732892 -4.56946386

